1

                    Execution started at 20251015.095936         



                    ---------------------------------------
                                     SWAN
                    SIMULATION OF WAVES IN NEAR SHORE AREAS
                             VERSION NUMBER 41.51               
                    ---------------------------------------


    
 $*************************HEADING************************
    
 PROJ 'WP' 'wwm'
    
 $********************MODEL INPUT*************************
    
 !
    
 SET LEVEL 0.50 NAUTical
    
 MODE NONST TWOD
    
 !
    
 CGRID UNSTRUC CIRCLE 36 0.0376 1. 36
 Resolution in sigma-space: df/f =  0.0954
    
 READGRID UNSTRUC ADCIRC


 The unstructured grid contains solely triangles generated by SMS/ADCIRC

 Number of vertices          =  150884

 Number of cells             =  291084
    Number of internal cells =  280366
    Number of boundary cells =   10718

 Number of faces             =  442016
    Number of internal faces =  431236
    Number of boundary faces =   10780


 The minimum gridsize =     7.58486
 The maximum gridsize =   653.78009
    
 !
    
 INPGRID WIND REG 338532.62917465915 6403976.356402224 0.0 22 26 3758.396647814071 4434.554447237328 EXC -999 NONSTAT 20150502.000000 1 HR 20150507.000000
    
 READINP WIND 1. 'Barrac2_2015_05_02_0000_to_2015_05_07_0000.dat' 3 0 0 0 FREE
    
 !
    
 BOUN SHAPE JONSWAP 0.02 PEAK DSPR DEGREES
    
 BOU SIDE 1 CCW VARiable FILE  601.24 'node_23658_dist_601.24m.txt' 1 &
   2405.15 'node_85308_dist_2405.15m.txt' 1 &
   4810.32 'node_86684_dist_4810.32m.txt' 1 &
   7616.35 'node_99101_dist_7616.35m.txt' 1 &
   10021.56 'node_88531_dist_10021.56m.txt' 1 &
   12827.63 'node_64386_dist_12827.63m.txt' 1 &
   15232.89 'node_65079_dist_15232.89m.txt' 1 &
   18039.01 'node_99444_dist_18039.01m.txt' 1 &
   21429.75 'node_65373_dist_21429.75m.txt' 1 &
   24781.65 'node_65412_dist_24781.65m.txt' 1 &
   27388.14 'node_99310_dist_27388.14m.txt' 1 &
   31243.91 'node_64376_dist_31243.91m.txt' 1 &
   34038.03 'node_65299_dist_34038.03m.txt' 1 &
   37530.62 'node_65483_dist_37530.62m.txt' 1 &
   40674.00 'node_88367_dist_40674.00m.txt' 1 &
   43118.90 'node_99290_dist_43118.90m.txt' 1 &
   46262.19 'node_64669_dist_46262.19m.txt' 1 &
   48707.11 'node_65073_dist_48707.11m.txt' 1 &
   52898.27 'node_102097_dist_52898.27m.txt' 1 &
   56740.32 'node_99187_dist_56740.32m.txt' 1 &
   60582.27 'node_99279_dist_60582.27m.txt' 1 &
   64075.00 'node_64680_dist_64075.00m.txt' 1 &
   66519.98 'node_87401_dist_66519.98m.txt' 1 &
   68964.86 'node_29331_dist_68964.86m.txt' 1 &
   71409.86 'node_61825_dist_71409.86m.txt' 1 &
   73505.50 'node_99090_dist_73505.50m.txt' 1 &
   76299.78 'node_29476_dist_76299.78m.txt' 1 &
   78395.43 'node_63328_dist_78395.43m.txt' 1 &
   82237.50 'node_64351_dist_82237.50m.txt' 1 &
   85031.81 'node_87993_dist_85031.81m.txt' 1 &
   88524.65 'node_86588_dist_88524.65m.txt' 1 &
   91668.24 'node_99143_dist_91668.24m.txt' 1 &
   95161.11 'node_99377_dist_95161.11m.txt' 1 &
   97955.47 'node_86595_dist_97955.47m.txt' 1 &
   100749.72 'node_63701_dist_100749.72m.txt' 1 &
   104592.02 'node_63812_dist_104592.02m.txt' 1 &
   108084.96 'node_63864_dist_108084.96m.txt' 1 &
   112276.46 'node_63881_dist_112276.46m.txt' 1 &
   115070.88 'node_87755_dist_115070.88m.txt' 1 &
   118664.68 'node_87752_dist_118664.68m.txt' 1 &
   121745.06 'node_64134_dist_121745.06m.txt' 1 &
   125338.78 'node_87799_dist_125338.78m.txt' 1 &
   128419.00 'node_64252_dist_128419.00m.txt' 1 &
   131242.59 'node_98928_dist_131242.59m.txt' 1 &
   134066.16 'node_63190_dist_134066.16m.txt' 1 &
   137146.29 'node_87613_dist_137146.29m.txt' 1 &
   139713.13 'node_29506_dist_139713.13m.txt' 1 &
   143049.97 'node_29313_dist_143049.97m.txt' 1 &
   145103.33 'node_84536_dist_145103.33m.txt' 1 &
   147561.81 'node_24150_dist_147561.81m.txt' 1
    
 
    
 !
    
 GEN3
    
 FRICTION
    
 BREAKING
    
 QUAD
    
 TRIAD
    
 WCAPping
    
 !PROP BSBT
    
 !
    
 POINTS 'BUOYS' FILE   'CS.loc'
    
 TABLE  'BUOYS' HEAD   'Westport.tab' HS TM01 TM02 DSPR DIR RTP TPS DIST DEP BOTLev WIND WATLEV OUT 20150504.000000 1 HR
    
 !
    
 NUM ACCUR 0.01  0.02  0.02  98.5  NONSTAT  100  CSigma  0.5  &  CTheta  0.5
 BLOCK 'COMPGRID' NOHEAD 'Westport.vtk' BOTLEV HS TM01 DIR PDIR TPS DSPR WATLEV WIND OUT 20150504.000000 1 HR
    
 !
    
 TEST 1,0
    
 COMPUTE NONSTAT 20150504.000000 300 SEC 20150505.000000
 Boundary data type TPAR processed, time:       89999.
 Boundary data type TPAR processed, time:       93599.
 Boundary data type TPAR processed, time:       97199.
 Boundary data type TPAR processed, time:      100799.
 Boundary data type TPAR processed, time:      104399.
 Boundary data type TPAR processed, time:      107999.
 Boundary data type TPAR processed, time:      111599.
 Boundary data type TPAR processed, time:      115199.
 Boundary data type TPAR processed, time:      118799.
 Boundary data type TPAR processed, time:      122399.
 Boundary data type TPAR processed, time:      125999.
 Boundary data type TPAR processed, time:      129599.
 Boundary data type TPAR processed, time:      133199.
 Boundary data type TPAR processed, time:      136799.
 Boundary data type TPAR processed, time:      140399.
 Boundary data type TPAR processed, time:      143999.
 Boundary data type TPAR processed, time:      147599.
 Boundary data type TPAR processed, time:      151199.
 Boundary data type TPAR processed, time:      154799.
 Boundary data type TPAR processed, time:      158399.
 Boundary data type TPAR processed, time:      161999.
 Boundary data type TPAR processed, time:      165599.
 Boundary data type TPAR processed, time:      169199.
 Boundary data type TPAR processed, time:      172799.
 Boundary data type TPAR processed, time:      176399.
 Boundary data type TPAR processed, time:       89999.
 Boundary data type TPAR processed, time:       93599.
 Boundary data type TPAR processed, time:       97199.
 Boundary data type TPAR processed, time:      100799.
 Boundary data type TPAR processed, time:      104399.
 Boundary data type TPAR processed, time:      107999.
 Boundary data type TPAR processed, time:      111599.
 Boundary data type TPAR processed, time:      115199.
 Boundary data type TPAR processed, time:      118799.
 Boundary data type TPAR processed, time:      122399.
 Boundary data type TPAR processed, time:      125999.
 Boundary data type TPAR processed, time:      129599.
 Boundary data type TPAR processed, time:      133199.
 Boundary data type TPAR processed, time:      136799.
 Boundary data type TPAR processed, time:      140399.
 Boundary data type TPAR processed, time:      143999.
 Boundary data type TPAR processed, time:      147599.
 Boundary data type TPAR processed, time:      151199.
 Boundary data type TPAR processed, time:      154799.
 Boundary data type TPAR processed, time:      158399.
 Boundary data type TPAR processed, time:      161999.
 Boundary data type TPAR processed, time:      165599.
 Boundary data type TPAR processed, time:      169199.
 Boundary data type TPAR processed, time:      172799.
 Boundary data type TPAR processed, time:      176399.
 Boundary data type TPAR processed, time:       89999.
 Boundary data type TPAR processed, time:       93599.
 Boundary data type TPAR processed, time:       97199.
 Boundary data type TPAR processed, time:      100799.
 Boundary data type TPAR processed, time:      104399.
 Boundary data type TPAR processed, time:      107999.
 Boundary data type TPAR processed, time:      111599.
 Boundary data type TPAR processed, time:      115199.
 Boundary data type TPAR processed, time:      118799.
 Boundary data type TPAR processed, time:      122399.
 Boundary data type TPAR processed, time:      125999.
 Boundary data type TPAR processed, time:      129599.
 Boundary data type TPAR processed, time:      133199.
 Boundary data type TPAR processed, time:      136799.
 Boundary data type TPAR processed, time:      140399.
 Boundary data type TPAR processed, time:      143999.
 Boundary data type TPAR processed, time:      147599.
 Boundary data type TPAR processed, time:      151199.
 Boundary data type TPAR processed, time:      154799.
 Boundary data type TPAR processed, time:      158399.
 Boundary data type TPAR processed, time:      161999.
 Boundary data type TPAR processed, time:      165599.
 Boundary data type TPAR processed, time:      169199.
 Boundary data type TPAR processed, time:      172799.
 Boundary data type TPAR processed, time:      176399.
 Boundary data type TPAR processed, time:       89999.
 Boundary data type TPAR processed, time:       93599.
 Boundary data type TPAR processed, time:       97199.
 Boundary data type TPAR processed, time:      100799.
 Boundary data type TPAR processed, time:      104399.
 Boundary data type TPAR processed, time:      107999.
 Boundary data type TPAR processed, time:      111599.
 Boundary data type TPAR processed, time:      115199.
 Boundary data type TPAR processed, time:      118799.
 Boundary data type TPAR processed, time:      122399.
 Boundary data type TPAR processed, time:      125999.
 Boundary data type TPAR processed, time:      129599.
 Boundary data type TPAR processed, time:      133199.
 Boundary data type TPAR processed, time:      136799.
 Boundary data type TPAR processed, time:      140399.
 Boundary data type TPAR processed, time:      143999.
 Boundary data type TPAR processed, time:      147599.
 Boundary data type TPAR processed, time:      151199.
 Boundary data type TPAR processed, time:      154799.
 Boundary data type TPAR processed, time:      158399.
 Boundary data type TPAR processed, time:      161999.
 Boundary data type TPAR processed, time:      165599.
 Boundary data type TPAR processed, time:      169199.
 Boundary data type TPAR processed, time:      172799.
 Boundary data type TPAR processed, time:      176399.
 Boundary data type TPAR processed, time:       89999.
 Boundary data type TPAR processed, time:       93599.
 Boundary data type TPAR processed, time:       97199.
 Boundary data type TPAR processed, time:      100799.
 Boundary data type TPAR processed, time:      104399.
 Boundary data type TPAR processed, time:      107999.
 Boundary data type TPAR processed, time:      111599.
 Boundary data type TPAR processed, time:      115199.
 Boundary data type TPAR processed, time:      118799.
 Boundary data type TPAR processed, time:      122399.
 Boundary data type TPAR processed, time:      125999.
 Boundary data type TPAR processed, time:      129599.
 Boundary data type TPAR processed, time:      133199.
 Boundary data type TPAR processed, time:      136799.
 Boundary data type TPAR processed, time:      140399.
 Boundary data type TPAR processed, time:      143999.
 Boundary data type TPAR processed, time:      147599.
 Boundary data type TPAR processed, time:      151199.
 Boundary data type TPAR processed, time:      154799.
 Boundary data type TPAR processed, time:      158399.
 Boundary data type TPAR processed, time:      161999.
 Boundary data type TPAR processed, time:      165599.
 Boundary data type TPAR processed, time:      169199.
 Boundary data type TPAR processed, time:      172799.
 Boundary data type TPAR processed, time:      176399.
 Boundary data type TPAR processed, time:       89999.
 Boundary data type TPAR processed, time:       93599.
 Boundary data type TPAR processed, time:       97199.
 Boundary data type TPAR processed, time:      100799.
 Boundary data type TPAR processed, time:      104399.
 Boundary data type TPAR processed, time:      107999.
 Boundary data type TPAR processed, time:      111599.
 Boundary data type TPAR processed, time:      115199.
 Boundary data type TPAR processed, time:      118799.
 Boundary data type TPAR processed, time:      122399.
 Boundary data type TPAR processed, time:      125999.
 Boundary data type TPAR processed, time:      129599.
 Boundary data type TPAR processed, time:      133199.
 Boundary data type TPAR processed, time:      136799.
 Boundary data type TPAR processed, time:      140399.
 Boundary data type TPAR processed, time:      143999.
 Boundary data type TPAR processed, time:      147599.
 Boundary data type TPAR processed, time:      151199.
 Boundary data type TPAR processed, time:      154799.
 Boundary data type TPAR processed, time:      158399.
 Boundary data type TPAR processed, time:      161999.
 Boundary data type TPAR processed, time:      165599.
 Boundary data type TPAR processed, time:      169199.
 Boundary data type TPAR processed, time:      172799.
 Boundary data type TPAR processed, time:      176399.
 Boundary data type TPAR processed, time:       89999.
 Boundary data type TPAR processed, time:       93599.
 Boundary data type TPAR processed, time:       97199.
 Boundary data type TPAR processed, time:      100799.
 Boundary data type TPAR processed, time:      104399.
 Boundary data type TPAR processed, time:      107999.
 Boundary data type TPAR processed, time:      111599.
 Boundary data type TPAR processed, time:      115199.
 Boundary data type TPAR processed, time:      118799.
 Boundary data type TPAR processed, time:      122399.
 Boundary data type TPAR processed, time:      125999.
 Boundary data type TPAR processed, time:      129599.
 Boundary data type TPAR processed, time:      133199.
 Boundary data type TPAR processed, time:      136799.
 Boundary data type TPAR processed, time:      140399.
 Boundary data type TPAR processed, time:      143999.
 Boundary data type TPAR processed, time:      147599.
 Boundary data type TPAR processed, time:      151199.
 Boundary data type TPAR processed, time:      154799.
 Boundary data type TPAR processed, time:      158399.
 Boundary data type TPAR processed, time:      161999.
 Boundary data type TPAR processed, time:      165599.
 Boundary data type TPAR processed, time:      169199.
 Boundary data type TPAR processed, time:      172799.
 Boundary data type TPAR processed, time:      176399.
 Boundary data type TPAR processed, time:       89999.
 Boundary data type TPAR processed, time:       93599.
 Boundary data type TPAR processed, time:       97199.
 Boundary data type TPAR processed, time:      100799.
 Boundary data type TPAR processed, time:      104399.
 Boundary data type TPAR processed, time:      107999.
 Boundary data type TPAR processed, time:      111599.
 Boundary data type TPAR processed, time:      115199.
 Boundary data type TPAR processed, time:      118799.
 Boundary data type TPAR processed, time:      122399.
 Boundary data type TPAR processed, time:      125999.
 Boundary data type TPAR processed, time:      129599.
 Boundary data type TPAR processed, time:      133199.
 Boundary data type TPAR processed, time:      136799.
 Boundary data type TPAR processed, time:      140399.
 Boundary data type TPAR processed, time:      143999.
 Boundary data type TPAR processed, time:      147599.
 Boundary data type TPAR processed, time:      151199.
 Boundary data type TPAR processed, time:      154799.
 Boundary data type TPAR processed, time:      158399.
 Boundary data type TPAR processed, time:      161999.
 Boundary data type TPAR processed, time:      165599.
 Boundary data type TPAR processed, time:      169199.
 Boundary data type TPAR processed, time:      172799.
 Boundary data type TPAR processed, time:      176399.
 Boundary data type TPAR processed, time:       89999.
 Boundary data type TPAR processed, time:       93599.
 Boundary data type TPAR processed, time:       97199.
 Boundary data type TPAR processed, time:      100799.
 Boundary data type TPAR processed, time:      104399.
 Boundary data type TPAR processed, time:      107999.
 Boundary data type TPAR processed, time:      111599.
 Boundary data type TPAR processed, time:      115199.
 Boundary data type TPAR processed, time:      118799.
 Boundary data type TPAR processed, time:      122399.
 Boundary data type TPAR processed, time:      125999.
 Boundary data type TPAR processed, time:      129599.
 Boundary data type TPAR processed, time:      133199.
 Boundary data type TPAR processed, time:      136799.
 Boundary data type TPAR processed, time:      140399.
 Boundary data type TPAR processed, time:      143999.
 Boundary data type TPAR processed, time:      147599.
 Boundary data type TPAR processed, time:      151199.
 Boundary data type TPAR processed, time:      154799.
 Boundary data type TPAR processed, time:      158399.
 Boundary data type TPAR processed, time:      161999.
 Boundary data type TPAR processed, time:      165599.
 Boundary data type TPAR processed, time:      169199.
 Boundary data type TPAR processed, time:      172799.
 Boundary data type TPAR processed, time:      176399.
 Boundary data type TPAR processed, time:       89999.
 Boundary data type TPAR processed, time:       93599.
 Boundary data type TPAR processed, time:       97199.
 Boundary data type TPAR processed, time:      100799.
 Boundary data type TPAR processed, time:      104399.
 Boundary data type TPAR processed, time:      107999.
 Boundary data type TPAR processed, time:      111599.
 Boundary data type TPAR processed, time:      115199.
 Boundary data type TPAR processed, time:      118799.
 Boundary data type TPAR processed, time:      122399.
 Boundary data type TPAR processed, time:      125999.
 Boundary data type TPAR processed, time:      129599.
 Boundary data type TPAR processed, time:      133199.
 Boundary data type TPAR processed, time:      136799.
 Boundary data type TPAR processed, time:      140399.
 Boundary data type TPAR processed, time:      143999.
 Boundary data type TPAR processed, time:      147599.
 Boundary data type TPAR processed, time:      151199.
 Boundary data type TPAR processed, time:      154799.
 Boundary data type TPAR processed, time:      158399.
 Boundary data type TPAR processed, time:      161999.
 Boundary data type TPAR processed, time:      165599.
 Boundary data type TPAR processed, time:      169199.
 Boundary data type TPAR processed, time:      172799.
 Boundary data type TPAR processed, time:      176399.
 Boundary data type TPAR processed, time:       89999.
 Boundary data type TPAR processed, time:       93599.
 Boundary data type TPAR processed, time:       97199.
 Boundary data type TPAR processed, time:      100799.
 Boundary data type TPAR processed, time:      104399.
 Boundary data type TPAR processed, time:      107999.
 Boundary data type TPAR processed, time:      111599.
 Boundary data type TPAR processed, time:      115199.
 Boundary data type TPAR processed, time:      118799.
 Boundary data type TPAR processed, time:      122399.
 Boundary data type TPAR processed, time:      125999.
 Boundary data type TPAR processed, time:      129599.
 Boundary data type TPAR processed, time:      133199.
 Boundary data type TPAR processed, time:      136799.
 Boundary data type TPAR processed, time:      140399.
 Boundary data type TPAR processed, time:      143999.
 Boundary data type TPAR processed, time:      147599.
 Boundary data type TPAR processed, time:      151199.
 Boundary data type TPAR processed, time:      154799.
 Boundary data type TPAR processed, time:      158399.
 Boundary data type TPAR processed, time:      161999.
 Boundary data type TPAR processed, time:      165599.
 Boundary data type TPAR processed, time:      169199.
 Boundary data type TPAR processed, time:      172799.
 Boundary data type TPAR processed, time:      176399.
 Boundary data type TPAR processed, time:       89999.
 Boundary data type TPAR processed, time:       93599.
 Boundary data type TPAR processed, time:       97199.
 Boundary data type TPAR processed, time:      100799.
 Boundary data type TPAR processed, time:      104399.
 Boundary data type TPAR processed, time:      107999.
 Boundary data type TPAR processed, time:      111599.
 Boundary data type TPAR processed, time:      115199.
 Boundary data type TPAR processed, time:      118799.
 Boundary data type TPAR processed, time:      122399.
 Boundary data type TPAR processed, time:      125999.
 Boundary data type TPAR processed, time:      129599.
 Boundary data type TPAR processed, time:      133199.
 Boundary data type TPAR processed, time:      136799.
 Boundary data type TPAR processed, time:      140399.
 Boundary data type TPAR processed, time:      143999.
 Boundary data type TPAR processed, time:      147599.
 Boundary data type TPAR processed, time:      151199.
 Boundary data type TPAR processed, time:      154799.
 Boundary data type TPAR processed, time:      158399.
 Boundary data type TPAR processed, time:      161999.
 Boundary data type TPAR processed, time:      165599.
 Boundary data type TPAR processed, time:      169199.
 Boundary data type TPAR processed, time:      172799.
 Boundary data type TPAR processed, time:      176399.
 Boundary data type TPAR processed, time:       89999.
 Boundary data type TPAR processed, time:       93599.
 Boundary data type TPAR processed, time:       97199.
 Boundary data type TPAR processed, time:      100799.
 Boundary data type TPAR processed, time:      104399.
 Boundary data type TPAR processed, time:      107999.
 Boundary data type TPAR processed, time:      111599.
 Boundary data type TPAR processed, time:      115199.
 Boundary data type TPAR processed, time:      118799.
 Boundary data type TPAR processed, time:      122399.
 Boundary data type TPAR processed, time:      125999.
 Boundary data type TPAR processed, time:      129599.
 Boundary data type TPAR processed, time:      133199.
 Boundary data type TPAR processed, time:      136799.
 Boundary data type TPAR processed, time:      140399.
 Boundary data type TPAR processed, time:      143999.
 Boundary data type TPAR processed, time:      147599.
 Boundary data type TPAR processed, time:      151199.
 Boundary data type TPAR processed, time:      154799.
 Boundary data type TPAR processed, time:      158399.
 Boundary data type TPAR processed, time:      161999.
 Boundary data type TPAR processed, time:      165599.
 Boundary data type TPAR processed, time:      169199.
 Boundary data type TPAR processed, time:      172799.
 Boundary data type TPAR processed, time:      176399.
 Boundary data type TPAR processed, time:       89999.
 Boundary data type TPAR processed, time:       93599.
 Boundary data type TPAR processed, time:       97199.
 Boundary data type TPAR processed, time:      100799.
 Boundary data type TPAR processed, time:      104399.
 Boundary data type TPAR processed, time:      107999.
 Boundary data type TPAR processed, time:      111599.
 Boundary data type TPAR processed, time:      115199.
 Boundary data type TPAR processed, time:      118799.
 Boundary data type TPAR processed, time:      122399.
 Boundary data type TPAR processed, time:      125999.
 Boundary data type TPAR processed, time:      129599.
 Boundary data type TPAR processed, time:      133199.
 Boundary data type TPAR processed, time:      136799.
 Boundary data type TPAR processed, time:      140399.
 Boundary data type TPAR processed, time:      143999.
 Boundary data type TPAR processed, time:      147599.
 Boundary data type TPAR processed, time:      151199.
 Boundary data type TPAR processed, time:      154799.
 Boundary data type TPAR processed, time:      158399.
 Boundary data type TPAR processed, time:      161999.
 Boundary data type TPAR processed, time:      165599.
 Boundary data type TPAR processed, time:      169199.
 Boundary data type TPAR processed, time:      172799.
 Boundary data type TPAR processed, time:      176399.
 Boundary data type TPAR processed, time:       89999.
 Boundary data type TPAR processed, time:       93599.
 Boundary data type TPAR processed, time:       97199.
 Boundary data type TPAR processed, time:      100799.
 Boundary data type TPAR processed, time:      104399.
 Boundary data type TPAR processed, time:      107999.
 Boundary data type TPAR processed, time:      111599.
 Boundary data type TPAR processed, time:      115199.
 Boundary data type TPAR processed, time:      118799.
 Boundary data type TPAR processed, time:      122399.
 Boundary data type TPAR processed, time:      125999.
 Boundary data type TPAR processed, time:      129599.
 Boundary data type TPAR processed, time:      133199.
 Boundary data type TPAR processed, time:      136799.
 Boundary data type TPAR processed, time:      140399.
 Boundary data type TPAR processed, time:      143999.
 Boundary data type TPAR processed, time:      147599.
 Boundary data type TPAR processed, time:      151199.
 Boundary data type TPAR processed, time:      154799.
 Boundary data type TPAR processed, time:      158399.
 Boundary data type TPAR processed, time:      161999.
 Boundary data type TPAR processed, time:      165599.
 Boundary data type TPAR processed, time:      169199.
 Boundary data type TPAR processed, time:      172799.
 Boundary data type TPAR processed, time:      176399.
 Boundary data type TPAR processed, time:       89999.
 Boundary data type TPAR processed, time:       93599.
 Boundary data type TPAR processed, time:       97199.
 Boundary data type TPAR processed, time:      100799.
 Boundary data type TPAR processed, time:      104399.
 Boundary data type TPAR processed, time:      107999.
 Boundary data type TPAR processed, time:      111599.
 Boundary data type TPAR processed, time:      115199.
 Boundary data type TPAR processed, time:      118799.
 Boundary data type TPAR processed, time:      122399.
 Boundary data type TPAR processed, time:      125999.
 Boundary data type TPAR processed, time:      129599.
 Boundary data type TPAR processed, time:      133199.
 Boundary data type TPAR processed, time:      136799.
 Boundary data type TPAR processed, time:      140399.
 Boundary data type TPAR processed, time:      143999.
 Boundary data type TPAR processed, time:      147599.
 Boundary data type TPAR processed, time:      151199.
 Boundary data type TPAR processed, time:      154799.
 Boundary data type TPAR processed, time:      158399.
 Boundary data type TPAR processed, time:      161999.
 Boundary data type TPAR processed, time:      165599.
 Boundary data type TPAR processed, time:      169199.
 Boundary data type TPAR processed, time:      172799.
 Boundary data type TPAR processed, time:      176399.
 Boundary data type TPAR processed, time:       89999.
 Boundary data type TPAR processed, time:       93599.
 Boundary data type TPAR processed, time:       97199.
 Boundary data type TPAR processed, time:      100799.
 Boundary data type TPAR processed, time:      104399.
 Boundary data type TPAR processed, time:      107999.
 Boundary data type TPAR processed, time:      111599.
 Boundary data type TPAR processed, time:      115199.
 Boundary data type TPAR processed, time:      118799.
 Boundary data type TPAR processed, time:      122399.
 Boundary data type TPAR processed, time:      125999.
 Boundary data type TPAR processed, time:      129599.
 Boundary data type TPAR processed, time:      133199.
 Boundary data type TPAR processed, time:      136799.
 Boundary data type TPAR processed, time:      140399.
 Boundary data type TPAR processed, time:      143999.
 Boundary data type TPAR processed, time:      147599.
 Boundary data type TPAR processed, time:      151199.
 Boundary data type TPAR processed, time:      154799.
 Boundary data type TPAR processed, time:      158399.
 Boundary data type TPAR processed, time:      161999.
 Boundary data type TPAR processed, time:      165599.
 Boundary data type TPAR processed, time:      169199.
 Boundary data type TPAR processed, time:      172799.
 Boundary data type TPAR processed, time:      176399.
 Boundary data type TPAR processed, time:       89999.
 Boundary data type TPAR processed, time:       93599.
 Boundary data type TPAR processed, time:       97199.
 Boundary data type TPAR processed, time:      100799.
 Boundary data type TPAR processed, time:      104399.
 Boundary data type TPAR processed, time:      107999.
 Boundary data type TPAR processed, time:      111599.
 Boundary data type TPAR processed, time:      115199.
 Boundary data type TPAR processed, time:      118799.
 Boundary data type TPAR processed, time:      122399.
 Boundary data type TPAR processed, time:      125999.
 Boundary data type TPAR processed, time:      129599.
 Boundary data type TPAR processed, time:      133199.
 Boundary data type TPAR processed, time:      136799.
 Boundary data type TPAR processed, time:      140399.
 Boundary data type TPAR processed, time:      143999.
 Boundary data type TPAR processed, time:      147599.
 Boundary data type TPAR processed, time:      151199.
 Boundary data type TPAR processed, time:      154799.
 Boundary data type TPAR processed, time:      158399.
 Boundary data type TPAR processed, time:      161999.
 Boundary data type TPAR processed, time:      165599.
 Boundary data type TPAR processed, time:      169199.
 Boundary data type TPAR processed, time:      172799.
 Boundary data type TPAR processed, time:      176399.
 Boundary data type TPAR processed, time:       89999.
 Boundary data type TPAR processed, time:       93599.
 Boundary data type TPAR processed, time:       97199.
 Boundary data type TPAR processed, time:      100799.
 Boundary data type TPAR processed, time:      104399.
 Boundary data type TPAR processed, time:      107999.
 Boundary data type TPAR processed, time:      111599.
 Boundary data type TPAR processed, time:      115199.
 Boundary data type TPAR processed, time:      118799.
 Boundary data type TPAR processed, time:      122399.
 Boundary data type TPAR processed, time:      125999.
 Boundary data type TPAR processed, time:      129599.
 Boundary data type TPAR processed, time:      133199.
 Boundary data type TPAR processed, time:      136799.
 Boundary data type TPAR processed, time:      140399.
 Boundary data type TPAR processed, time:      143999.
 Boundary data type TPAR processed, time:      147599.
 Boundary data type TPAR processed, time:      151199.
 Boundary data type TPAR processed, time:      154799.
 Boundary data type TPAR processed, time:      158399.
 Boundary data type TPAR processed, time:      161999.
 Boundary data type TPAR processed, time:      165599.
 Boundary data type TPAR processed, time:      169199.
 Boundary data type TPAR processed, time:      172799.
 Boundary data type TPAR processed, time:      176399.
 Boundary data type TPAR processed, time:       89999.
 Boundary data type TPAR processed, time:       93599.
 Boundary data type TPAR processed, time:       97199.
 Boundary data type TPAR processed, time:      100799.
 Boundary data type TPAR processed, time:      104399.
 Boundary data type TPAR processed, time:      107999.
 Boundary data type TPAR processed, time:      111599.
 Boundary data type TPAR processed, time:      115199.
 Boundary data type TPAR processed, time:      118799.
 Boundary data type TPAR processed, time:      122399.
 Boundary data type TPAR processed, time:      125999.
 Boundary data type TPAR processed, time:      129599.
 Boundary data type TPAR processed, time:      133199.
 Boundary data type TPAR processed, time:      136799.
 Boundary data type TPAR processed, time:      140399.
 Boundary data type TPAR processed, time:      143999.
 Boundary data type TPAR processed, time:      147599.
 Boundary data type TPAR processed, time:      151199.
 Boundary data type TPAR processed, time:      154799.
 Boundary data type TPAR processed, time:      158399.
 Boundary data type TPAR processed, time:      161999.
 Boundary data type TPAR processed, time:      165599.
 Boundary data type TPAR processed, time:      169199.
 Boundary data type TPAR processed, time:      172799.
 Boundary data type TPAR processed, time:      176399.
 Boundary data type TPAR processed, time:       89999.
 Boundary data type TPAR processed, time:       93599.
 Boundary data type TPAR processed, time:       97199.
 Boundary data type TPAR processed, time:      100799.
 Boundary data type TPAR processed, time:      104399.
 Boundary data type TPAR processed, time:      107999.
 Boundary data type TPAR processed, time:      111599.
 Boundary data type TPAR processed, time:      115199.
 Boundary data type TPAR processed, time:      118799.
 Boundary data type TPAR processed, time:      122399.
 Boundary data type TPAR processed, time:      125999.
 Boundary data type TPAR processed, time:      129599.
 Boundary data type TPAR processed, time:      133199.
 Boundary data type TPAR processed, time:      136799.
 Boundary data type TPAR processed, time:      140399.
 Boundary data type TPAR processed, time:      143999.
 Boundary data type TPAR processed, time:      147599.
 Boundary data type TPAR processed, time:      151199.
 Boundary data type TPAR processed, time:      154799.
 Boundary data type TPAR processed, time:      158399.
 Boundary data type TPAR processed, time:      161999.
 Boundary data type TPAR processed, time:      165599.
 Boundary data type TPAR processed, time:      169199.
 Boundary data type TPAR processed, time:      172799.
 Boundary data type TPAR processed, time:      176399.
 Boundary data type TPAR processed, time:       89999.
 Boundary data type TPAR processed, time:       93599.
 Boundary data type TPAR processed, time:       97199.
 Boundary data type TPAR processed, time:      100799.
 Boundary data type TPAR processed, time:      104399.
 Boundary data type TPAR processed, time:      107999.
 Boundary data type TPAR processed, time:      111599.
 Boundary data type TPAR processed, time:      115199.
 Boundary data type TPAR processed, time:      118799.
 Boundary data type TPAR processed, time:      122399.
 Boundary data type TPAR processed, time:      125999.
 Boundary data type TPAR processed, time:      129599.
 Boundary data type TPAR processed, time:      133199.
 Boundary data type TPAR processed, time:      136799.
 Boundary data type TPAR processed, time:      140399.
 Boundary data type TPAR processed, time:      143999.
 Boundary data type TPAR processed, time:      147599.
 Boundary data type TPAR processed, time:      151199.
 Boundary data type TPAR processed, time:      154799.
 Boundary data type TPAR processed, time:      158399.
 Boundary data type TPAR processed, time:      161999.
 Boundary data type TPAR processed, time:      165599.
 Boundary data type TPAR processed, time:      169199.
 Boundary data type TPAR processed, time:      172799.
 Boundary data type TPAR processed, time:      176399.
 Boundary data type TPAR processed, time:       89999.
 Boundary data type TPAR processed, time:       93599.
 Boundary data type TPAR processed, time:       97199.
 Boundary data type TPAR processed, time:      100799.
 Boundary data type TPAR processed, time:      104399.
 Boundary data type TPAR processed, time:      107999.
 Boundary data type TPAR processed, time:      111599.
 Boundary data type TPAR processed, time:      115199.
 Boundary data type TPAR processed, time:      118799.
 Boundary data type TPAR processed, time:      122399.
 Boundary data type TPAR processed, time:      125999.
 Boundary data type TPAR processed, time:      129599.
 Boundary data type TPAR processed, time:      133199.
 Boundary data type TPAR processed, time:      136799.
 Boundary data type TPAR processed, time:      140399.
 Boundary data type TPAR processed, time:      143999.
 Boundary data type TPAR processed, time:      147599.
 Boundary data type TPAR processed, time:      151199.
 Boundary data type TPAR processed, time:      154799.
 Boundary data type TPAR processed, time:      158399.
 Boundary data type TPAR processed, time:      161999.
 Boundary data type TPAR processed, time:      165599.
 Boundary data type TPAR processed, time:      169199.
 Boundary data type TPAR processed, time:      172799.
 Boundary data type TPAR processed, time:      176399.
 Boundary data type TPAR processed, time:       89999.
 Boundary data type TPAR processed, time:       93599.
 Boundary data type TPAR processed, time:       97199.
 Boundary data type TPAR processed, time:      100799.
 Boundary data type TPAR processed, time:      104399.
 Boundary data type TPAR processed, time:      107999.
 Boundary data type TPAR processed, time:      111599.
 Boundary data type TPAR processed, time:      115199.
 Boundary data type TPAR processed, time:      118799.
 Boundary data type TPAR processed, time:      122399.
 Boundary data type TPAR processed, time:      125999.
 Boundary data type TPAR processed, time:      129599.
 Boundary data type TPAR processed, time:      133199.
 Boundary data type TPAR processed, time:      136799.
 Boundary data type TPAR processed, time:      140399.
 Boundary data type TPAR processed, time:      143999.
 Boundary data type TPAR processed, time:      147599.
 Boundary data type TPAR processed, time:      151199.
 Boundary data type TPAR processed, time:      154799.
 Boundary data type TPAR processed, time:      158399.
 Boundary data type TPAR processed, time:      161999.
 Boundary data type TPAR processed, time:      165599.
 Boundary data type TPAR processed, time:      169199.
 Boundary data type TPAR processed, time:      172799.
 Boundary data type TPAR processed, time:      176399.
 Boundary data type TPAR processed, time:       89999.
 Boundary data type TPAR processed, time:       93599.
 Boundary data type TPAR processed, time:       97199.
 Boundary data type TPAR processed, time:      100799.
 Boundary data type TPAR processed, time:      104399.
 Boundary data type TPAR processed, time:      107999.
 Boundary data type TPAR processed, time:      111599.
 Boundary data type TPAR processed, time:      115199.
 Boundary data type TPAR processed, time:      118799.
 Boundary data type TPAR processed, time:      122399.
 Boundary data type TPAR processed, time:      125999.
 Boundary data type TPAR processed, time:      129599.
 Boundary data type TPAR processed, time:      133199.
 Boundary data type TPAR processed, time:      136799.
 Boundary data type TPAR processed, time:      140399.
 Boundary data type TPAR processed, time:      143999.
 Boundary data type TPAR processed, time:      147599.
 Boundary data type TPAR processed, time:      151199.
 Boundary data type TPAR processed, time:      154799.
 Boundary data type TPAR processed, time:      158399.
 Boundary data type TPAR processed, time:      161999.
 Boundary data type TPAR processed, time:      165599.
 Boundary data type TPAR processed, time:      169199.
 Boundary data type TPAR processed, time:      172799.
 Boundary data type TPAR processed, time:      176399.
 Boundary data type TPAR processed, time:       89999.
 Boundary data type TPAR processed, time:       93599.
 Boundary data type TPAR processed, time:       97199.
 Boundary data type TPAR processed, time:      100799.
 Boundary data type TPAR processed, time:      104399.
 Boundary data type TPAR processed, time:      107999.
 Boundary data type TPAR processed, time:      111599.
 Boundary data type TPAR processed, time:      115199.
 Boundary data type TPAR processed, time:      118799.
 Boundary data type TPAR processed, time:      122399.
 Boundary data type TPAR processed, time:      125999.
 Boundary data type TPAR processed, time:      129599.
 Boundary data type TPAR processed, time:      133199.
 Boundary data type TPAR processed, time:      136799.
 Boundary data type TPAR processed, time:      140399.
 Boundary data type TPAR processed, time:      143999.
 Boundary data type TPAR processed, time:      147599.
 Boundary data type TPAR processed, time:      151199.
 Boundary data type TPAR processed, time:      154799.
 Boundary data type TPAR processed, time:      158399.
 Boundary data type TPAR processed, time:      161999.
 Boundary data type TPAR processed, time:      165599.
 Boundary data type TPAR processed, time:      169199.
 Boundary data type TPAR processed, time:      172799.
 Boundary data type TPAR processed, time:      176399.
 Boundary data type TPAR processed, time:       89999.
 Boundary data type TPAR processed, time:       93599.
 Boundary data type TPAR processed, time:       97199.
 Boundary data type TPAR processed, time:      100799.
 Boundary data type TPAR processed, time:      104399.
 Boundary data type TPAR processed, time:      107999.
 Boundary data type TPAR processed, time:      111599.
 Boundary data type TPAR processed, time:      115199.
 Boundary data type TPAR processed, time:      118799.
 Boundary data type TPAR processed, time:      122399.
 Boundary data type TPAR processed, time:      125999.
 Boundary data type TPAR processed, time:      129599.
 Boundary data type TPAR processed, time:      133199.
 Boundary data type TPAR processed, time:      136799.
 Boundary data type TPAR processed, time:      140399.
 Boundary data type TPAR processed, time:      143999.
 Boundary data type TPAR processed, time:      147599.
 Boundary data type TPAR processed, time:      151199.
 Boundary data type TPAR processed, time:      154799.
 Boundary data type TPAR processed, time:      158399.
 Boundary data type TPAR processed, time:      161999.
 Boundary data type TPAR processed, time:      165599.
 Boundary data type TPAR processed, time:      169199.
 Boundary data type TPAR processed, time:      172799.
 Boundary data type TPAR processed, time:      176399.
 Boundary data type TPAR processed, time:       89999.
 Boundary data type TPAR processed, time:       93599.
 Boundary data type TPAR processed, time:       97199.
 Boundary data type TPAR processed, time:      100799.
 Boundary data type TPAR processed, time:      104399.
 Boundary data type TPAR processed, time:      107999.
 Boundary data type TPAR processed, time:      111599.
 Boundary data type TPAR processed, time:      115199.
 Boundary data type TPAR processed, time:      118799.
 Boundary data type TPAR processed, time:      122399.
 Boundary data type TPAR processed, time:      125999.
 Boundary data type TPAR processed, time:      129599.
 Boundary data type TPAR processed, time:      133199.
 Boundary data type TPAR processed, time:      136799.
 Boundary data type TPAR processed, time:      140399.
 Boundary data type TPAR processed, time:      143999.
 Boundary data type TPAR processed, time:      147599.
 Boundary data type TPAR processed, time:      151199.
 Boundary data type TPAR processed, time:      154799.
 Boundary data type TPAR processed, time:      158399.
 Boundary data type TPAR processed, time:      161999.
 Boundary data type TPAR processed, time:      165599.
 Boundary data type TPAR processed, time:      169199.
 Boundary data type TPAR processed, time:      172799.
 Boundary data type TPAR processed, time:      176399.
 Boundary data type TPAR processed, time:       89999.
 Boundary data type TPAR processed, time:       93599.
 Boundary data type TPAR processed, time:       97199.
 Boundary data type TPAR processed, time:      100799.
 Boundary data type TPAR processed, time:      104399.
 Boundary data type TPAR processed, time:      107999.
 Boundary data type TPAR processed, time:      111599.
 Boundary data type TPAR processed, time:      115199.
 Boundary data type TPAR processed, time:      118799.
 Boundary data type TPAR processed, time:      122399.
 Boundary data type TPAR processed, time:      125999.
 Boundary data type TPAR processed, time:      129599.
 Boundary data type TPAR processed, time:      133199.
 Boundary data type TPAR processed, time:      136799.
 Boundary data type TPAR processed, time:      140399.
 Boundary data type TPAR processed, time:      143999.
 Boundary data type TPAR processed, time:      147599.
 Boundary data type TPAR processed, time:      151199.
 Boundary data type TPAR processed, time:      154799.
 Boundary data type TPAR processed, time:      158399.
 Boundary data type TPAR processed, time:      161999.
 Boundary data type TPAR processed, time:      165599.
 Boundary data type TPAR processed, time:      169199.
 Boundary data type TPAR processed, time:      172799.
 Boundary data type TPAR processed, time:      176399.
 Boundary data type TPAR processed, time:       89999.
 Boundary data type TPAR processed, time:       93599.
 Boundary data type TPAR processed, time:       97199.
 Boundary data type TPAR processed, time:      100799.
 Boundary data type TPAR processed, time:      104399.
 Boundary data type TPAR processed, time:      107999.
 Boundary data type TPAR processed, time:      111599.
 Boundary data type TPAR processed, time:      115199.
 Boundary data type TPAR processed, time:      118799.
 Boundary data type TPAR processed, time:      122399.
 Boundary data type TPAR processed, time:      125999.
 Boundary data type TPAR processed, time:      129599.
 Boundary data type TPAR processed, time:      133199.
 Boundary data type TPAR processed, time:      136799.
 Boundary data type TPAR processed, time:      140399.
 Boundary data type TPAR processed, time:      143999.
 Boundary data type TPAR processed, time:      147599.
 Boundary data type TPAR processed, time:      151199.
 Boundary data type TPAR processed, time:      154799.
 Boundary data type TPAR processed, time:      158399.
 Boundary data type TPAR processed, time:      161999.
 Boundary data type TPAR processed, time:      165599.
 Boundary data type TPAR processed, time:      169199.
 Boundary data type TPAR processed, time:      172799.
 Boundary data type TPAR processed, time:      176399.
 Boundary data type TPAR processed, time:       89999.
 Boundary data type TPAR processed, time:       93599.
 Boundary data type TPAR processed, time:       97199.
 Boundary data type TPAR processed, time:      100799.
 Boundary data type TPAR processed, time:      104399.
 Boundary data type TPAR processed, time:      107999.
 Boundary data type TPAR processed, time:      111599.
 Boundary data type TPAR processed, time:      115199.
 Boundary data type TPAR processed, time:      118799.
 Boundary data type TPAR processed, time:      122399.
 Boundary data type TPAR processed, time:      125999.
 Boundary data type TPAR processed, time:      129599.
 Boundary data type TPAR processed, time:      133199.
 Boundary data type TPAR processed, time:      136799.
 Boundary data type TPAR processed, time:      140399.
 Boundary data type TPAR processed, time:      143999.
 Boundary data type TPAR processed, time:      147599.
 Boundary data type TPAR processed, time:      151199.
 Boundary data type TPAR processed, time:      154799.
 Boundary data type TPAR processed, time:      158399.
 Boundary data type TPAR processed, time:      161999.
 Boundary data type TPAR processed, time:      165599.
 Boundary data type TPAR processed, time:      169199.
 Boundary data type TPAR processed, time:      172799.
 Boundary data type TPAR processed, time:      176399.
 Boundary data type TPAR processed, time:       89999.
 Boundary data type TPAR processed, time:       93599.
 Boundary data type TPAR processed, time:       97199.
 Boundary data type TPAR processed, time:      100799.
 Boundary data type TPAR processed, time:      104399.
 Boundary data type TPAR processed, time:      107999.
 Boundary data type TPAR processed, time:      111599.
 Boundary data type TPAR processed, time:      115199.
 Boundary data type TPAR processed, time:      118799.
 Boundary data type TPAR processed, time:      122399.
 Boundary data type TPAR processed, time:      125999.
 Boundary data type TPAR processed, time:      129599.
 Boundary data type TPAR processed, time:      133199.
 Boundary data type TPAR processed, time:      136799.
 Boundary data type TPAR processed, time:      140399.
 Boundary data type TPAR processed, time:      143999.
 Boundary data type TPAR processed, time:      147599.
 Boundary data type TPAR processed, time:      151199.
 Boundary data type TPAR processed, time:      154799.
 Boundary data type TPAR processed, time:      158399.
 Boundary data type TPAR processed, time:      161999.
 Boundary data type TPAR processed, time:      165599.
 Boundary data type TPAR processed, time:      169199.
 Boundary data type TPAR processed, time:      172799.
 Boundary data type TPAR processed, time:      176399.
 Boundary data type TPAR processed, time:       89999.
 Boundary data type TPAR processed, time:       93599.
 Boundary data type TPAR processed, time:       97199.
 Boundary data type TPAR processed, time:      100799.
 Boundary data type TPAR processed, time:      104399.
 Boundary data type TPAR processed, time:      107999.
 Boundary data type TPAR processed, time:      111599.
 Boundary data type TPAR processed, time:      115199.
 Boundary data type TPAR processed, time:      118799.
 Boundary data type TPAR processed, time:      122399.
 Boundary data type TPAR processed, time:      125999.
 Boundary data type TPAR processed, time:      129599.
 Boundary data type TPAR processed, time:      133199.
 Boundary data type TPAR processed, time:      136799.
 Boundary data type TPAR processed, time:      140399.
 Boundary data type TPAR processed, time:      143999.
 Boundary data type TPAR processed, time:      147599.
 Boundary data type TPAR processed, time:      151199.
 Boundary data type TPAR processed, time:      154799.
 Boundary data type TPAR processed, time:      158399.
 Boundary data type TPAR processed, time:      161999.
 Boundary data type TPAR processed, time:      165599.
 Boundary data type TPAR processed, time:      169199.
 Boundary data type TPAR processed, time:      172799.
 Boundary data type TPAR processed, time:      176399.
 Boundary data type TPAR processed, time:       89999.
 Boundary data type TPAR processed, time:       93599.
 Boundary data type TPAR processed, time:       97199.
 Boundary data type TPAR processed, time:      100799.
 Boundary data type TPAR processed, time:      104399.
 Boundary data type TPAR processed, time:      107999.
 Boundary data type TPAR processed, time:      111599.
 Boundary data type TPAR processed, time:      115199.
 Boundary data type TPAR processed, time:      118799.
 Boundary data type TPAR processed, time:      122399.
 Boundary data type TPAR processed, time:      125999.
 Boundary data type TPAR processed, time:      129599.
 Boundary data type TPAR processed, time:      133199.
 Boundary data type TPAR processed, time:      136799.
 Boundary data type TPAR processed, time:      140399.
 Boundary data type TPAR processed, time:      143999.
 Boundary data type TPAR processed, time:      147599.
 Boundary data type TPAR processed, time:      151199.
 Boundary data type TPAR processed, time:      154799.
 Boundary data type TPAR processed, time:      158399.
 Boundary data type TPAR processed, time:      161999.
 Boundary data type TPAR processed, time:      165599.
 Boundary data type TPAR processed, time:      169199.
 Boundary data type TPAR processed, time:      172799.
 Boundary data type TPAR processed, time:      176399.
 Boundary data type TPAR processed, time:       89999.
 Boundary data type TPAR processed, time:       93599.
 Boundary data type TPAR processed, time:       97199.
 Boundary data type TPAR processed, time:      100799.
 Boundary data type TPAR processed, time:      104399.
 Boundary data type TPAR processed, time:      107999.
 Boundary data type TPAR processed, time:      111599.
 Boundary data type TPAR processed, time:      115199.
 Boundary data type TPAR processed, time:      118799.
 Boundary data type TPAR processed, time:      122399.
 Boundary data type TPAR processed, time:      125999.
 Boundary data type TPAR processed, time:      129599.
 Boundary data type TPAR processed, time:      133199.
 Boundary data type TPAR processed, time:      136799.
 Boundary data type TPAR processed, time:      140399.
 Boundary data type TPAR processed, time:      143999.
 Boundary data type TPAR processed, time:      147599.
 Boundary data type TPAR processed, time:      151199.
 Boundary data type TPAR processed, time:      154799.
 Boundary data type TPAR processed, time:      158399.
 Boundary data type TPAR processed, time:      161999.
 Boundary data type TPAR processed, time:      165599.
 Boundary data type TPAR processed, time:      169199.
 Boundary data type TPAR processed, time:      172799.
 Boundary data type TPAR processed, time:      176399.
 Boundary data type TPAR processed, time:       89999.
 Boundary data type TPAR processed, time:       93599.
 Boundary data type TPAR processed, time:       97199.
 Boundary data type TPAR processed, time:      100799.
 Boundary data type TPAR processed, time:      104399.
 Boundary data type TPAR processed, time:      107999.
 Boundary data type TPAR processed, time:      111599.
 Boundary data type TPAR processed, time:      115199.
 Boundary data type TPAR processed, time:      118799.
 Boundary data type TPAR processed, time:      122399.
 Boundary data type TPAR processed, time:      125999.
 Boundary data type TPAR processed, time:      129599.
 Boundary data type TPAR processed, time:      133199.
 Boundary data type TPAR processed, time:      136799.
 Boundary data type TPAR processed, time:      140399.
 Boundary data type TPAR processed, time:      143999.
 Boundary data type TPAR processed, time:      147599.
 Boundary data type TPAR processed, time:      151199.
 Boundary data type TPAR processed, time:      154799.
 Boundary data type TPAR processed, time:      158399.
 Boundary data type TPAR processed, time:      161999.
 Boundary data type TPAR processed, time:      165599.
 Boundary data type TPAR processed, time:      169199.
 Boundary data type TPAR processed, time:      172799.
 Boundary data type TPAR processed, time:      176399.
 Boundary data type TPAR processed, time:       89999.
 Boundary data type TPAR processed, time:       93599.
 Boundary data type TPAR processed, time:       97199.
 Boundary data type TPAR processed, time:      100799.
 Boundary data type TPAR processed, time:      104399.
 Boundary data type TPAR processed, time:      107999.
 Boundary data type TPAR processed, time:      111599.
 Boundary data type TPAR processed, time:      115199.
 Boundary data type TPAR processed, time:      118799.
 Boundary data type TPAR processed, time:      122399.
 Boundary data type TPAR processed, time:      125999.
 Boundary data type TPAR processed, time:      129599.
 Boundary data type TPAR processed, time:      133199.
 Boundary data type TPAR processed, time:      136799.
 Boundary data type TPAR processed, time:      140399.
 Boundary data type TPAR processed, time:      143999.
 Boundary data type TPAR processed, time:      147599.
 Boundary data type TPAR processed, time:      151199.
 Boundary data type TPAR processed, time:      154799.
 Boundary data type TPAR processed, time:      158399.
 Boundary data type TPAR processed, time:      161999.
 Boundary data type TPAR processed, time:      165599.
 Boundary data type TPAR processed, time:      169199.
 Boundary data type TPAR processed, time:      172799.
 Boundary data type TPAR processed, time:      176399.
 Boundary data type TPAR processed, time:       89999.
 Boundary data type TPAR processed, time:       93599.
 Boundary data type TPAR processed, time:       97199.
 Boundary data type TPAR processed, time:      100799.
 Boundary data type TPAR processed, time:      104399.
 Boundary data type TPAR processed, time:      107999.
 Boundary data type TPAR processed, time:      111599.
 Boundary data type TPAR processed, time:      115199.
 Boundary data type TPAR processed, time:      118799.
 Boundary data type TPAR processed, time:      122399.
 Boundary data type TPAR processed, time:      125999.
 Boundary data type TPAR processed, time:      129599.
 Boundary data type TPAR processed, time:      133199.
 Boundary data type TPAR processed, time:      136799.
 Boundary data type TPAR processed, time:      140399.
 Boundary data type TPAR processed, time:      143999.
 Boundary data type TPAR processed, time:      147599.
 Boundary data type TPAR processed, time:      151199.
 Boundary data type TPAR processed, time:      154799.
 Boundary data type TPAR processed, time:      158399.
 Boundary data type TPAR processed, time:      161999.
 Boundary data type TPAR processed, time:      165599.
 Boundary data type TPAR processed, time:      169199.
 Boundary data type TPAR processed, time:      172799.
 Boundary data type TPAR processed, time:      176399.
 Boundary data type TPAR processed, time:       89999.
 Boundary data type TPAR processed, time:       93599.
 Boundary data type TPAR processed, time:       97199.
 Boundary data type TPAR processed, time:      100799.
 Boundary data type TPAR processed, time:      104399.
 Boundary data type TPAR processed, time:      107999.
 Boundary data type TPAR processed, time:      111599.
 Boundary data type TPAR processed, time:      115199.
 Boundary data type TPAR processed, time:      118799.
 Boundary data type TPAR processed, time:      122399.
 Boundary data type TPAR processed, time:      125999.
 Boundary data type TPAR processed, time:      129599.
 Boundary data type TPAR processed, time:      133199.
 Boundary data type TPAR processed, time:      136799.
 Boundary data type TPAR processed, time:      140399.
 Boundary data type TPAR processed, time:      143999.
 Boundary data type TPAR processed, time:      147599.
 Boundary data type TPAR processed, time:      151199.
 Boundary data type TPAR processed, time:      154799.
 Boundary data type TPAR processed, time:      158399.
 Boundary data type TPAR processed, time:      161999.
 Boundary data type TPAR processed, time:      165599.
 Boundary data type TPAR processed, time:      169199.
 Boundary data type TPAR processed, time:      172799.
 Boundary data type TPAR processed, time:      176399.
 Boundary data type TPAR processed, time:       89999.
 Boundary data type TPAR processed, time:       93599.
 Boundary data type TPAR processed, time:       97199.
 Boundary data type TPAR processed, time:      100799.
 Boundary data type TPAR processed, time:      104399.
 Boundary data type TPAR processed, time:      107999.
 Boundary data type TPAR processed, time:      111599.
 Boundary data type TPAR processed, time:      115199.
 Boundary data type TPAR processed, time:      118799.
 Boundary data type TPAR processed, time:      122399.
 Boundary data type TPAR processed, time:      125999.
 Boundary data type TPAR processed, time:      129599.
 Boundary data type TPAR processed, time:      133199.
 Boundary data type TPAR processed, time:      136799.
 Boundary data type TPAR processed, time:      140399.
 Boundary data type TPAR processed, time:      143999.
 Boundary data type TPAR processed, time:      147599.
 Boundary data type TPAR processed, time:      151199.
 Boundary data type TPAR processed, time:      154799.
 Boundary data type TPAR processed, time:      158399.
 Boundary data type TPAR processed, time:      161999.
 Boundary data type TPAR processed, time:      165599.
 Boundary data type TPAR processed, time:      169199.
 Boundary data type TPAR processed, time:      172799.
 Boundary data type TPAR processed, time:      176399.
 Boundary data type TPAR processed, time:       89999.
 Boundary data type TPAR processed, time:       93599.
 Boundary data type TPAR processed, time:       97199.
 Boundary data type TPAR processed, time:      100799.
 Boundary data type TPAR processed, time:      104399.
 Boundary data type TPAR processed, time:      107999.
 Boundary data type TPAR processed, time:      111599.
 Boundary data type TPAR processed, time:      115199.
 Boundary data type TPAR processed, time:      118799.
 Boundary data type TPAR processed, time:      122399.
 Boundary data type TPAR processed, time:      125999.
 Boundary data type TPAR processed, time:      129599.
 Boundary data type TPAR processed, time:      133199.
 Boundary data type TPAR processed, time:      136799.
 Boundary data type TPAR processed, time:      140399.
 Boundary data type TPAR processed, time:      143999.
 Boundary data type TPAR processed, time:      147599.
 Boundary data type TPAR processed, time:      151199.
 Boundary data type TPAR processed, time:      154799.
 Boundary data type TPAR processed, time:      158399.
 Boundary data type TPAR processed, time:      161999.
 Boundary data type TPAR processed, time:      165599.
 Boundary data type TPAR processed, time:      169199.
 Boundary data type TPAR processed, time:      172799.
 Boundary data type TPAR processed, time:      176399.
 Boundary data type TPAR processed, time:       89999.
 Boundary data type TPAR processed, time:       93599.
 Boundary data type TPAR processed, time:       97199.
 Boundary data type TPAR processed, time:      100799.
 Boundary data type TPAR processed, time:      104399.
 Boundary data type TPAR processed, time:      107999.
 Boundary data type TPAR processed, time:      111599.
 Boundary data type TPAR processed, time:      115199.
 Boundary data type TPAR processed, time:      118799.
 Boundary data type TPAR processed, time:      122399.
 Boundary data type TPAR processed, time:      125999.
 Boundary data type TPAR processed, time:      129599.
 Boundary data type TPAR processed, time:      133199.
 Boundary data type TPAR processed, time:      136799.
 Boundary data type TPAR processed, time:      140399.
 Boundary data type TPAR processed, time:      143999.
 Boundary data type TPAR processed, time:      147599.
 Boundary data type TPAR processed, time:      151199.
 Boundary data type TPAR processed, time:      154799.
 Boundary data type TPAR processed, time:      158399.
 Boundary data type TPAR processed, time:      161999.
 Boundary data type TPAR processed, time:      165599.
 Boundary data type TPAR processed, time:      169199.
 Boundary data type TPAR processed, time:      172799.
 Boundary data type TPAR processed, time:      176399.
 Boundary data type TPAR processed, time:       89999.
 Boundary data type TPAR processed, time:       93599.
 Boundary data type TPAR processed, time:       97199.
 Boundary data type TPAR processed, time:      100799.
 Boundary data type TPAR processed, time:      104399.
 Boundary data type TPAR processed, time:      107999.
 Boundary data type TPAR processed, time:      111599.
 Boundary data type TPAR processed, time:      115199.
 Boundary data type TPAR processed, time:      118799.
 Boundary data type TPAR processed, time:      122399.
 Boundary data type TPAR processed, time:      125999.
 Boundary data type TPAR processed, time:      129599.
 Boundary data type TPAR processed, time:      133199.
 Boundary data type TPAR processed, time:      136799.
 Boundary data type TPAR processed, time:      140399.
 Boundary data type TPAR processed, time:      143999.
 Boundary data type TPAR processed, time:      147599.
 Boundary data type TPAR processed, time:      151199.
 Boundary data type TPAR processed, time:      154799.
 Boundary data type TPAR processed, time:      158399.
 Boundary data type TPAR processed, time:      161999.
 Boundary data type TPAR processed, time:      165599.
 Boundary data type TPAR processed, time:      169199.
 Boundary data type TPAR processed, time:      172799.
 Boundary data type TPAR processed, time:      176399.
 Boundary data type TPAR processed, time:       89999.
 Boundary data type TPAR processed, time:       93599.
 Boundary data type TPAR processed, time:       97199.
 Boundary data type TPAR processed, time:      100799.
 Boundary data type TPAR processed, time:      104399.
 Boundary data type TPAR processed, time:      107999.
 Boundary data type TPAR processed, time:      111599.
 Boundary data type TPAR processed, time:      115199.
 Boundary data type TPAR processed, time:      118799.
 Boundary data type TPAR processed, time:      122399.
 Boundary data type TPAR processed, time:      125999.
 Boundary data type TPAR processed, time:      129599.
 Boundary data type TPAR processed, time:      133199.
 Boundary data type TPAR processed, time:      136799.
 Boundary data type TPAR processed, time:      140399.
 Boundary data type TPAR processed, time:      143999.
 Boundary data type TPAR processed, time:      147599.
 Boundary data type TPAR processed, time:      151199.
 Boundary data type TPAR processed, time:      154799.
 Boundary data type TPAR processed, time:      158399.
 Boundary data type TPAR processed, time:      161999.
 Boundary data type TPAR processed, time:      165599.
 Boundary data type TPAR processed, time:      169199.
 Boundary data type TPAR processed, time:      172799.
 Boundary data type TPAR processed, time:      176399.
 Boundary data type TPAR processed, time:       89999.
 Boundary data type TPAR processed, time:       93599.
 Boundary data type TPAR processed, time:       97199.
 Boundary data type TPAR processed, time:      100799.
 Boundary data type TPAR processed, time:      104399.
 Boundary data type TPAR processed, time:      107999.
 Boundary data type TPAR processed, time:      111599.
 Boundary data type TPAR processed, time:      115199.
 Boundary data type TPAR processed, time:      118799.
 Boundary data type TPAR processed, time:      122399.
 Boundary data type TPAR processed, time:      125999.
 Boundary data type TPAR processed, time:      129599.
 Boundary data type TPAR processed, time:      133199.
 Boundary data type TPAR processed, time:      136799.
 Boundary data type TPAR processed, time:      140399.
 Boundary data type TPAR processed, time:      143999.
 Boundary data type TPAR processed, time:      147599.
 Boundary data type TPAR processed, time:      151199.
 Boundary data type TPAR processed, time:      154799.
 Boundary data type TPAR processed, time:      158399.
 Boundary data type TPAR processed, time:      161999.
 Boundary data type TPAR processed, time:      165599.
 Boundary data type TPAR processed, time:      169199.
 Boundary data type TPAR processed, time:      172799.
 Boundary data type TPAR processed, time:      176399.
 Boundary data type TPAR processed, time:       89999.
 Boundary data type TPAR processed, time:       93599.
 Boundary data type TPAR processed, time:       97199.
 Boundary data type TPAR processed, time:      100799.
 Boundary data type TPAR processed, time:      104399.
 Boundary data type TPAR processed, time:      107999.
 Boundary data type TPAR processed, time:      111599.
 Boundary data type TPAR processed, time:      115199.
 Boundary data type TPAR processed, time:      118799.
 Boundary data type TPAR processed, time:      122399.
 Boundary data type TPAR processed, time:      125999.
 Boundary data type TPAR processed, time:      129599.
 Boundary data type TPAR processed, time:      133199.
 Boundary data type TPAR processed, time:      136799.
 Boundary data type TPAR processed, time:      140399.
 Boundary data type TPAR processed, time:      143999.
 Boundary data type TPAR processed, time:      147599.
 Boundary data type TPAR processed, time:      151199.
 Boundary data type TPAR processed, time:      154799.
 Boundary data type TPAR processed, time:      158399.
 Boundary data type TPAR processed, time:      161999.
 Boundary data type TPAR processed, time:      165599.
 Boundary data type TPAR processed, time:      169199.
 Boundary data type TPAR processed, time:      172799.
 Boundary data type TPAR processed, time:      176399.
 Boundary data type TPAR processed, time:       89999.
 Boundary data type TPAR processed, time:       93599.
 Boundary data type TPAR processed, time:       97199.
 Boundary data type TPAR processed, time:      100799.
 Boundary data type TPAR processed, time:      104399.
 Boundary data type TPAR processed, time:      107999.
 Boundary data type TPAR processed, time:      111599.
 Boundary data type TPAR processed, time:      115199.
 Boundary data type TPAR processed, time:      118799.
 Boundary data type TPAR processed, time:      122399.
 Boundary data type TPAR processed, time:      125999.
 Boundary data type TPAR processed, time:      129599.
 Boundary data type TPAR processed, time:      133199.
 Boundary data type TPAR processed, time:      136799.
 Boundary data type TPAR processed, time:      140399.
 Boundary data type TPAR processed, time:      143999.
 Boundary data type TPAR processed, time:      147599.
 Boundary data type TPAR processed, time:      151199.
 Boundary data type TPAR processed, time:      154799.
 Boundary data type TPAR processed, time:      158399.
 Boundary data type TPAR processed, time:      161999.
 Boundary data type TPAR processed, time:      165599.
 Boundary data type TPAR processed, time:      169199.
 Boundary data type TPAR processed, time:      172799.
 Boundary data type TPAR processed, time:      176399.
 Boundary data type TPAR processed, time:       89999.
 Boundary data type TPAR processed, time:       93599.
 Boundary data type TPAR processed, time:       97199.
 Boundary data type TPAR processed, time:      100799.
 Boundary data type TPAR processed, time:      104399.
 Boundary data type TPAR processed, time:      107999.
 Boundary data type TPAR processed, time:      111599.
 Boundary data type TPAR processed, time:      115199.
 Boundary data type TPAR processed, time:      118799.
 Boundary data type TPAR processed, time:      122399.
 Boundary data type TPAR processed, time:      125999.
 Boundary data type TPAR processed, time:      129599.
 Boundary data type TPAR processed, time:      133199.
 Boundary data type TPAR processed, time:      136799.
 Boundary data type TPAR processed, time:      140399.
 Boundary data type TPAR processed, time:      143999.
 Boundary data type TPAR processed, time:      147599.
 Boundary data type TPAR processed, time:      151199.
 Boundary data type TPAR processed, time:      154799.
 Boundary data type TPAR processed, time:      158399.
 Boundary data type TPAR processed, time:      161999.
 Boundary data type TPAR processed, time:      165599.
 Boundary data type TPAR processed, time:      169199.
 Boundary data type TPAR processed, time:      172799.
 Boundary data type TPAR processed, time:      176399.
 Boundary data type TPAR processed, time:       89999.
 Boundary data type TPAR processed, time:       93599.
 Boundary data type TPAR processed, time:       97199.
 Boundary data type TPAR processed, time:      100799.
 Boundary data type TPAR processed, time:      104399.
 Boundary data type TPAR processed, time:      107999.
 Boundary data type TPAR processed, time:      111599.
 Boundary data type TPAR processed, time:      115199.
 Boundary data type TPAR processed, time:      118799.
 Boundary data type TPAR processed, time:      122399.
 Boundary data type TPAR processed, time:      125999.
 Boundary data type TPAR processed, time:      129599.
 Boundary data type TPAR processed, time:      133199.
 Boundary data type TPAR processed, time:      136799.
 Boundary data type TPAR processed, time:      140399.
 Boundary data type TPAR processed, time:      143999.
 Boundary data type TPAR processed, time:      147599.
 Boundary data type TPAR processed, time:      151199.
 Boundary data type TPAR processed, time:      154799.
 Boundary data type TPAR processed, time:      158399.
 Boundary data type TPAR processed, time:      161999.
 Boundary data type TPAR processed, time:      165599.
 Boundary data type TPAR processed, time:      169199.
 Boundary data type TPAR processed, time:      172799.
 Boundary data type TPAR processed, time:      176399.
 Boundary data type TPAR processed, time:       89999.
 Boundary data type TPAR processed, time:       93599.
 Boundary data type TPAR processed, time:       97199.
 Boundary data type TPAR processed, time:      100799.
 Boundary data type TPAR processed, time:      104399.
 Boundary data type TPAR processed, time:      107999.
 Boundary data type TPAR processed, time:      111599.
 Boundary data type TPAR processed, time:      115199.
 Boundary data type TPAR processed, time:      118799.
 Boundary data type TPAR processed, time:      122399.
 Boundary data type TPAR processed, time:      125999.
 Boundary data type TPAR processed, time:      129599.
 Boundary data type TPAR processed, time:      133199.
 Boundary data type TPAR processed, time:      136799.
 Boundary data type TPAR processed, time:      140399.
 Boundary data type TPAR processed, time:      143999.
 Boundary data type TPAR processed, time:      147599.
 Boundary data type TPAR processed, time:      151199.
 Boundary data type TPAR processed, time:      154799.
 Boundary data type TPAR processed, time:      158399.
 Boundary data type TPAR processed, time:      161999.
 Boundary data type TPAR processed, time:      165599.
 Boundary data type TPAR processed, time:      169199.
 Boundary data type TPAR processed, time:      172799.
 Boundary data type TPAR processed, time:      176399.
 Time of computation ->  20150504.000500      in sec:     173100.

----------------------------------------------------------------
                  COMPUTATIONAL PART OF SWAN
----------------------------------------------------------------

 Gridresolution       : MSC              37 MDC             36
                      : MTC             288
                      : NSTATC            1 ITERMX         100
 Propagation flags    : ITFRE             1 IREFR            1
 Source term flags    : IBOT              1 ISURF            1
                      : IWCAP             7 IWIND            5
                      : ITRIAD            5 IQUAD            2
                      : IBRAG             0 IQCM             0
                      : IVEG              0 ITURBV           0
                      : IMUD              0 IICE             0
 Spectral bin         : df/f     0.9541E-01 DDIR    0.1000E+02
 Physical constants   : GRAV     0.9810E+01 RHO     0.1025E+04
 Wind input           : WSPEED   0.0000E+00 DIR     0.0000E+00
                      : ICEWIND  0.00
 Tail parameters      : E(f)     0.4000E+01 E(k)    0.2500E+01
                      : A(f)     0.5000E+01 A(k)    0.3000E+01
 Accuracy parameters  : DREL     0.1000E-01 NPNTS   0.9850E+02
                      : DHOVAL   0.2000E-01 DTOVAL  0.2000E-01
                      : GRWMX    0.1000E+00
 Drying/flooding      : LEVEL    0.5000E+00 DEPMIN  0.5000E-01
 The nautical  convention for wind and wave directions is used
 Scheme for geographic propagation is BSBT  
 Scheme spectral space: CSS      0.5000E+00 CDD     0.5000E+00
 Current is off
 Quadruplets          : IQUAD             2
                      : LAMBDA   0.2500E+00 CNL4    0.3000E+08
                      : CSH1     0.5500E+01 CSH2    0.8330E+00
                      : CSH3    -0.1250E+01
 Maximum Ursell nr for Snl4 :    0.1000E+02
 Triads               : ITRIAD            5 TRFAC   0.4400E+01
                      : POWER    0.1333E+01 URCRI   0.6300E+00
 Minimum Ursell nr for Snl3 :    0.1000E+00
 DCTA (Booij et al, 2009) is employed
 Biphase based on Eldeberky (1996)
 Bragg scattering is off
 QC scattering is off
 Surfbeat (IEM) is off
 JONSWAP (`73)        : GAMMA    0.3800E-01
 Vegetation is off
 Turbulence is off
 Fluid mud is off
 Dissipation by sea ice is off
 W-cap Alves-Banner   : CDS2     0.5000E-04 BR      0.1750E-02
 Wind drag is Wu
 Yan/Westhuysen wind input
 Battjes&Janssen (`78): ALPHA    0.1000E+01 GAMMA   0.7300E+00
 Set-up is off
 Diffraction is off
 Janssen (`89,`90)    : ALPHA    0.1000E-01 KAPPA   0.4100E+00
 Janssen (`89,`90)    : RHOA     0.1280E+01 RHOW    0.1025E+04

 1st and 2nd gen. wind: CF10     0.1880E+03 CF20    0.5900E+00
                      : CF30     0.1200E+00 CF40    0.2500E+03
                      : CF50     0.2300E-02 CF60   -0.2230E+00
                      : CF70     0.0000E+00 CF80   -0.5600E+00
                      : RHOAW    0.1249E-02 EDMLPM  0.3600E-02
                      : CDRAG    0.1230E-02 UMIN    0.1000E+01
                      : LIM_PM   0.1300E+00

 Number of active points = 150884 (fillings-degree: 100.00 %)
       not possible to compute accuracy, first iteration

 accuracy OK in  78.45 % of wet grid points ( 98.50 % required)

 accuracy OK in  78.48 % of wet grid points ( 98.50 % required)

 accuracy OK in  82.12 % of wet grid points ( 98.50 % required)

 accuracy OK in  78.56 % of wet grid points ( 98.50 % required)

 accuracy OK in  75.05 % of wet grid points ( 98.50 % required)

 accuracy OK in  70.50 % of wet grid points ( 98.50 % required)

 accuracy OK in  66.32 % of wet grid points ( 98.50 % required)

 accuracy OK in  63.52 % of wet grid points ( 98.50 % required)

 accuracy OK in  64.08 % of wet grid points ( 98.50 % required)

 accuracy OK in  65.81 % of wet grid points ( 98.50 % required)

 accuracy OK in  66.70 % of wet grid points ( 98.50 % required)

 accuracy OK in  66.65 % of wet grid points ( 98.50 % required)

 accuracy OK in  66.17 % of wet grid points ( 98.50 % required)

 accuracy OK in  64.76 % of wet grid points ( 98.50 % required)

 accuracy OK in  62.97 % of wet grid points ( 98.50 % required)

 accuracy OK in  60.92 % of wet grid points ( 98.50 % required)

 accuracy OK in  58.59 % of wet grid points ( 98.50 % required)

 accuracy OK in  56.16 % of wet grid points ( 98.50 % required)

 accuracy OK in  54.42 % of wet grid points ( 98.50 % required)

 accuracy OK in  52.96 % of wet grid points ( 98.50 % required)

 accuracy OK in  51.73 % of wet grid points ( 98.50 % required)

 accuracy OK in  51.08 % of wet grid points ( 98.50 % required)

 accuracy OK in  50.92 % of wet grid points ( 98.50 % required)

 accuracy OK in  50.98 % of wet grid points ( 98.50 % required)

 accuracy OK in  50.75 % of wet grid points ( 98.50 % required)

 accuracy OK in  50.73 % of wet grid points ( 98.50 % required)

 accuracy OK in  51.07 % of wet grid points ( 98.50 % required)

 accuracy OK in  51.54 % of wet grid points ( 98.50 % required)

 accuracy OK in  52.04 % of wet grid points ( 98.50 % required)

 accuracy OK in  52.95 % of wet grid points ( 98.50 % required)

 accuracy OK in  54.60 % of wet grid points ( 98.50 % required)

 accuracy OK in  56.85 % of wet grid points ( 98.50 % required)

 accuracy OK in  58.78 % of wet grid points ( 98.50 % required)

 accuracy OK in  61.29 % of wet grid points ( 98.50 % required)

 accuracy OK in  65.26 % of wet grid points ( 98.50 % required)

 accuracy OK in  68.64 % of wet grid points ( 98.50 % required)

 accuracy OK in  71.59 % of wet grid points ( 98.50 % required)

 accuracy OK in  73.92 % of wet grid points ( 98.50 % required)

 accuracy OK in  76.11 % of wet grid points ( 98.50 % required)

 accuracy OK in  78.05 % of wet grid points ( 98.50 % required)

 accuracy OK in  79.90 % of wet grid points ( 98.50 % required)

 accuracy OK in  81.68 % of wet grid points ( 98.50 % required)

 accuracy OK in  83.60 % of wet grid points ( 98.50 % required)

 accuracy OK in  84.95 % of wet grid points ( 98.50 % required)

 accuracy OK in  86.66 % of wet grid points ( 98.50 % required)

 accuracy OK in  88.04 % of wet grid points ( 98.50 % required)

 accuracy OK in  89.10 % of wet grid points ( 98.50 % required)

 accuracy OK in  89.92 % of wet grid points ( 98.50 % required)

 accuracy OK in  90.30 % of wet grid points ( 98.50 % required)

 accuracy OK in  90.26 % of wet grid points ( 98.50 % required)

 accuracy OK in  89.93 % of wet grid points ( 98.50 % required)

 accuracy OK in  89.42 % of wet grid points ( 98.50 % required)

 accuracy OK in  88.78 % of wet grid points ( 98.50 % required)

 accuracy OK in  88.21 % of wet grid points ( 98.50 % required)

 accuracy OK in  87.71 % of wet grid points ( 98.50 % required)

[...]

 accuracy OK in  99.92 % of wet grid points ( 98.50 % required)

 Time of computation ->  20150504.201000      in sec:     245400.
       not possible to compute accuracy, first iteration

 accuracy OK in  99.92 % of wet grid points ( 98.50 % required)

 Time of computation ->  20150504.201500      in sec:     245700.
       not possible to compute accuracy, first iteration

 accuracy OK in  99.89 % of wet grid points ( 98.50 % required)

 Time of computation ->  20150504.202000      in sec:     246000.
       not possible to compute accuracy, first iteration

 accuracy OK in  99.92 % of wet grid points ( 98.50 % required)

 Time of computation ->  20150504.202500      in sec:     246300.
       not possible to compute accuracy, first iteration

 accuracy OK in  99.90 % of wet grid points ( 98.50 % required)

 Time of computation ->  20150504.203000      in sec:     246600.
       not possible to compute accuracy, first iteration

 accuracy OK in  99.88 % of wet grid points ( 98.50 % required)

 Time of computation ->  20150504.203500      in sec:     246900.
       not possible to compute accuracy, first iteration

 accuracy OK in  99.85 % of wet grid points ( 98.50 % required)

 Time of computation ->  20150504.204000      in sec:     247200.
       not possible to compute accuracy, first iteration

 accuracy OK in  99.88 % of wet grid points ( 98.50 % required)

 Time of computation ->  20150504.204500      in sec:     247500.
       not possible to compute accuracy, first iteration

 accuracy OK in  99.88 % of wet grid points ( 98.50 % required)

 Time of computation ->  20150504.205000      in sec:     247800.
       not possible to compute accuracy, first iteration

 accuracy OK in  99.88 % of wet grid points ( 98.50 % required)

 Time of computation ->  20150504.205500      in sec:     248100.
       not possible to compute accuracy, first iteration

 accuracy OK in  99.93 % of wet grid points ( 98.50 % required)

 Time of computation ->  20150504.210000      in sec:     248400.
 Boundary data type TPAR processed, time:      251999.
 Boundary data type TPAR processed, time:      251999.
 Boundary data type TPAR processed, time:      251999.
 Boundary data type TPAR processed, time:      251999.
 Boundary data type TPAR processed, time:      251999.
 Boundary data type TPAR processed, time:      251999.
 Boundary data type TPAR processed, time:      251999.
 Boundary data type TPAR processed, time:      251999.
 Boundary data type TPAR processed, time:      251999.
 Boundary data type TPAR processed, time:      251999.
 Boundary data type TPAR processed, time:      251999.
 Boundary data type TPAR processed, time:      251999.
 Boundary data type TPAR processed, time:      251999.
 Boundary data type TPAR processed, time:      251999.
 Boundary data type TPAR processed, time:      251999.
 Boundary data type TPAR processed, time:      251999.
 Boundary data type TPAR processed, time:      251999.
 Boundary data type TPAR processed, time:      251999.
 Boundary data type TPAR processed, time:      251999.
 Boundary data type TPAR processed, time:      251999.
 Boundary data type TPAR processed, time:      251999.
 Boundary data type TPAR processed, time:      251999.
 Boundary data type TPAR processed, time:      251999.
 Boundary data type TPAR processed, time:      251999.
 Boundary data type TPAR processed, time:      251999.
 Boundary data type TPAR processed, time:      251999.
 Boundary data type TPAR processed, time:      251999.
 Boundary data type TPAR processed, time:      251999.
 Boundary data type TPAR processed, time:      251999.
 Boundary data type TPAR processed, time:      251999.
 Boundary data type TPAR processed, time:      251999.
 Boundary data type TPAR processed, time:      251999.
 Boundary data type TPAR processed, time:      251999.
 Boundary data type TPAR processed, time:      251999.
 Boundary data type TPAR processed, time:      251999.
 Boundary data type TPAR processed, time:      251999.
 Boundary data type TPAR processed, time:      251999.
 Boundary data type TPAR processed, time:      251999.
 Boundary data type TPAR processed, time:      251999.
 Boundary data type TPAR processed, time:      251999.
 Boundary data type TPAR processed, time:      251999.
 Boundary data type TPAR processed, time:      251999.
 Boundary data type TPAR processed, time:      251999.
 Boundary data type TPAR processed, time:      251999.
 Boundary data type TPAR processed, time:      251999.
 Boundary data type TPAR processed, time:      251999.
 Boundary data type TPAR processed, time:      251999.
 Boundary data type TPAR processed, time:      251999.
 Boundary data type TPAR processed, time:      251999.
 Boundary data type TPAR processed, time:      251999.
       not possible to compute accuracy, first iteration

 accuracy OK in  99.91 % of wet grid points ( 98.50 % required)

 Time of computation ->  20150504.210500      in sec:     248700.
       not possible to compute accuracy, first iteration

 accuracy OK in  99.92 % of wet grid points ( 98.50 % required)

 Time of computation ->  20150504.211000      in sec:     249000.
       not possible to compute accuracy, first iteration

 accuracy OK in  99.91 % of wet grid points ( 98.50 % required)

 Time of computation ->  20150504.211500      in sec:     249300.
       not possible to compute accuracy, first iteration

 accuracy OK in  99.87 % of wet grid points ( 98.50 % required)

 Time of computation ->  20150504.212000      in sec:     249600.
       not possible to compute accuracy, first iteration

 accuracy OK in  99.91 % of wet grid points ( 98.50 % required)

 Time of computation ->  20150504.212500      in sec:     249900.
       not possible to compute accuracy, first iteration

 accuracy OK in  99.90 % of wet grid points ( 98.50 % required)

 Time of computation ->  20150504.213000      in sec:     250200.
       not possible to compute accuracy, first iteration

 accuracy OK in  99.91 % of wet grid points ( 98.50 % required)

 Time of computation ->  20150504.213500      in sec:     250500.
       not possible to compute accuracy, first iteration

 accuracy OK in  99.91 % of wet grid points ( 98.50 % required)

 Time of computation ->  20150504.214000      in sec:     250800.
       not possible to compute accuracy, first iteration

 accuracy OK in  99.91 % of wet grid points ( 98.50 % required)

 Time of computation ->  20150504.214500      in sec:     251100.
       not possible to compute accuracy, first iteration

 accuracy OK in  99.93 % of wet grid points ( 98.50 % required)

 Time of computation ->  20150504.215000      in sec:     251400.
       not possible to compute accuracy, first iteration

 accuracy OK in  99.94 % of wet grid points ( 98.50 % required)

 Time of computation ->  20150504.215500      in sec:     251700.
       not possible to compute accuracy, first iteration

 accuracy OK in  99.93 % of wet grid points ( 98.50 % required)

 Time of computation ->  20150504.220000      in sec:     252000.
 Boundary data type TPAR processed, time:      255599.
 Boundary data type TPAR processed, time:      255599.
 Boundary data type TPAR processed, time:      255599.
 Boundary data type TPAR processed, time:      255599.
 Boundary data type TPAR processed, time:      255599.
 Boundary data type TPAR processed, time:      255599.
 Boundary data type TPAR processed, time:      255599.
 Boundary data type TPAR processed, time:      255599.
 Boundary data type TPAR processed, time:      255599.
 Boundary data type TPAR processed, time:      255599.
 Boundary data type TPAR processed, time:      255599.
 Boundary data type TPAR processed, time:      255599.
 Boundary data type TPAR processed, time:      255599.
 Boundary data type TPAR processed, time:      255599.
 Boundary data type TPAR processed, time:      255599.
 Boundary data type TPAR processed, time:      255599.
 Boundary data type TPAR processed, time:      255599.
 Boundary data type TPAR processed, time:      255599.
 Boundary data type TPAR processed, time:      255599.
 Boundary data type TPAR processed, time:      255599.
 Boundary data type TPAR processed, time:      255599.
 Boundary data type TPAR processed, time:      255599.
 Boundary data type TPAR processed, time:      255599.
 Boundary data type TPAR processed, time:      255599.
 Boundary data type TPAR processed, time:      255599.
 Boundary data type TPAR processed, time:      255599.
 Boundary data type TPAR processed, time:      255599.
 Boundary data type TPAR processed, time:      255599.
 Boundary data type TPAR processed, time:      255599.
 Boundary data type TPAR processed, time:      255599.
 Boundary data type TPAR processed, time:      255599.
 Boundary data type TPAR processed, time:      255599.
 Boundary data type TPAR processed, time:      255599.
 Boundary data type TPAR processed, time:      255599.
 Boundary data type TPAR processed, time:      255599.
 Boundary data type TPAR processed, time:      255599.
 Boundary data type TPAR processed, time:      255599.
 Boundary data type TPAR processed, time:      255599.
 Boundary data type TPAR processed, time:      255599.
 Boundary data type TPAR processed, time:      255599.
 Boundary data type TPAR processed, time:      255599.
 Boundary data type TPAR processed, time:      255599.
 Boundary data type TPAR processed, time:      255599.
 Boundary data type TPAR processed, time:      255599.
 Boundary data type TPAR processed, time:      255599.
 Boundary data type TPAR processed, time:      255599.
 Boundary data type TPAR processed, time:      255599.
 Boundary data type TPAR processed, time:      255599.
 Boundary data type TPAR processed, time:      255599.
 Boundary data type TPAR processed, time:      255599.
       not possible to compute accuracy, first iteration

 accuracy OK in  99.93 % of wet grid points ( 98.50 % required)

 Time of computation ->  20150504.220500      in sec:     252300.
       not possible to compute accuracy, first iteration

 accuracy OK in  99.93 % of wet grid points ( 98.50 % required)

 Time of computation ->  20150504.221000      in sec:     252600.
       not possible to compute accuracy, first iteration

 accuracy OK in  99.94 % of wet grid points ( 98.50 % required)

 Time of computation ->  20150504.221500      in sec:     252900.
       not possible to compute accuracy, first iteration

 accuracy OK in  99.94 % of wet grid points ( 98.50 % required)

 Time of computation ->  20150504.222000      in sec:     253200.
       not possible to compute accuracy, first iteration

 accuracy OK in  99.93 % of wet grid points ( 98.50 % required)

 Time of computation ->  20150504.222500      in sec:     253500.
       not possible to compute accuracy, first iteration

 accuracy OK in  99.91 % of wet grid points ( 98.50 % required)

 Time of computation ->  20150504.223000      in sec:     253800.
       not possible to compute accuracy, first iteration

 accuracy OK in  99.90 % of wet grid points ( 98.50 % required)

 Time of computation ->  20150504.223500      in sec:     254100.
       not possible to compute accuracy, first iteration

 accuracy OK in  99.90 % of wet grid points ( 98.50 % required)

 Time of computation ->  20150504.224000      in sec:     254400.
       not possible to compute accuracy, first iteration

 accuracy OK in  99.93 % of wet grid points ( 98.50 % required)

 Time of computation ->  20150504.224500      in sec:     254700.
       not possible to compute accuracy, first iteration

 accuracy OK in  99.93 % of wet grid points ( 98.50 % required)

 Time of computation ->  20150504.225000      in sec:     255000.
       not possible to compute accuracy, first iteration

 accuracy OK in  99.93 % of wet grid points ( 98.50 % required)

 Time of computation ->  20150504.225500      in sec:     255300.
       not possible to compute accuracy, first iteration

 accuracy OK in  99.93 % of wet grid points ( 98.50 % required)

 Time of computation ->  20150504.230000      in sec:     255600.
 Boundary data type TPAR processed, time:      259199.
 Boundary data type TPAR processed, time:      259199.
 Boundary data type TPAR processed, time:      259199.
 Boundary data type TPAR processed, time:      259199.
 Boundary data type TPAR processed, time:      259199.
 Boundary data type TPAR processed, time:      259199.
 Boundary data type TPAR processed, time:      259199.
 Boundary data type TPAR processed, time:      259199.
 Boundary data type TPAR processed, time:      259199.
 Boundary data type TPAR processed, time:      259199.
 Boundary data type TPAR processed, time:      259199.
 Boundary data type TPAR processed, time:      259199.
 Boundary data type TPAR processed, time:      259199.
 Boundary data type TPAR processed, time:      259199.
 Boundary data type TPAR processed, time:      259199.
 Boundary data type TPAR processed, time:      259199.
 Boundary data type TPAR processed, time:      259199.
 Boundary data type TPAR processed, time:      259199.
 Boundary data type TPAR processed, time:      259199.
 Boundary data type TPAR processed, time:      259199.
 Boundary data type TPAR processed, time:      259199.
 Boundary data type TPAR processed, time:      259199.
 Boundary data type TPAR processed, time:      259199.
 Boundary data type TPAR processed, time:      259199.
 Boundary data type TPAR processed, time:      259199.
 Boundary data type TPAR processed, time:      259199.
 Boundary data type TPAR processed, time:      259199.
 Boundary data type TPAR processed, time:      259199.
 Boundary data type TPAR processed, time:      259199.
 Boundary data type TPAR processed, time:      259199.
 Boundary data type TPAR processed, time:      259199.
 Boundary data type TPAR processed, time:      259199.
 Boundary data type TPAR processed, time:      259199.
 Boundary data type TPAR processed, time:      259199.
 Boundary data type TPAR processed, time:      259199.
 Boundary data type TPAR processed, time:      259199.
 Boundary data type TPAR processed, time:      259199.
 Boundary data type TPAR processed, time:      259199.
 Boundary data type TPAR processed, time:      259199.
 Boundary data type TPAR processed, time:      259199.
 Boundary data type TPAR processed, time:      259199.
 Boundary data type TPAR processed, time:      259199.
 Boundary data type TPAR processed, time:      259199.
 Boundary data type TPAR processed, time:      259199.
 Boundary data type TPAR processed, time:      259199.
 Boundary data type TPAR processed, time:      259199.
 Boundary data type TPAR processed, time:      259199.
 Boundary data type TPAR processed, time:      259199.
 Boundary data type TPAR processed, time:      259199.
 Boundary data type TPAR processed, time:      259199.
       not possible to compute accuracy, first iteration

 accuracy OK in  99.94 % of wet grid points ( 98.50 % required)

 Time of computation ->  20150504.230500      in sec:     255900.
       not possible to compute accuracy, first iteration

 accuracy OK in  99.93 % of wet grid points ( 98.50 % required)

 Time of computation ->  20150504.231000      in sec:     256200.
       not possible to compute accuracy, first iteration

 accuracy OK in  99.93 % of wet grid points ( 98.50 % required)

 Time of computation ->  20150504.231500      in sec:     256500.
       not possible to compute accuracy, first iteration

 accuracy OK in  99.94 % of wet grid points ( 98.50 % required)

 Time of computation ->  20150504.232000      in sec:     256800.
       not possible to compute accuracy, first iteration

 accuracy OK in  99.92 % of wet grid points ( 98.50 % required)

 Time of computation ->  20150504.232500      in sec:     257100.
       not possible to compute accuracy, first iteration

 accuracy OK in  99.91 % of wet grid points ( 98.50 % required)

 Time of computation ->  20150504.233000      in sec:     257400.
       not possible to compute accuracy, first iteration

 accuracy OK in  99.93 % of wet grid points ( 98.50 % required)

 Time of computation ->  20150504.233500      in sec:     257700.
       not possible to compute accuracy, first iteration

 accuracy OK in  99.90 % of wet grid points ( 98.50 % required)

 Time of computation ->  20150504.234000      in sec:     258000.
       not possible to compute accuracy, first iteration

 accuracy OK in  99.91 % of wet grid points ( 98.50 % required)

 Time of computation ->  20150504.234500      in sec:     258300.
       not possible to compute accuracy, first iteration

 accuracy OK in  99.93 % of wet grid points ( 98.50 % required)

 Time of computation ->  20150504.235000      in sec:     258600.
       not possible to compute accuracy, first iteration

 accuracy OK in  99.94 % of wet grid points ( 98.50 % required)

 Time of computation ->  20150504.235500      in sec:     258900.
       not possible to compute accuracy, first iteration

 accuracy OK in  99.92 % of wet grid points ( 98.50 % required)

 Time of computation ->  20150505.000000      in sec:     259200.
 Boundary data type TPAR processed, time:      262799.
 Boundary data type TPAR processed, time:      262799.
 Boundary data type TPAR processed, time:      262799.
 Boundary data type TPAR processed, time:      262799.
 Boundary data type TPAR processed, time:      262799.
 Boundary data type TPAR processed, time:      262799.
 Boundary data type TPAR processed, time:      262799.
 Boundary data type TPAR processed, time:      262799.
 Boundary data type TPAR processed, time:      262799.
 Boundary data type TPAR processed, time:      262799.
 Boundary data type TPAR processed, time:      262799.
 Boundary data type TPAR processed, time:      262799.
 Boundary data type TPAR processed, time:      262799.
 Boundary data type TPAR processed, time:      262799.
 Boundary data type TPAR processed, time:      262799.
 Boundary data type TPAR processed, time:      262799.
 Boundary data type TPAR processed, time:      262799.
 Boundary data type TPAR processed, time:      262799.
 Boundary data type TPAR processed, time:      262799.
 Boundary data type TPAR processed, time:      262799.
 Boundary data type TPAR processed, time:      262799.
 Boundary data type TPAR processed, time:      262799.
 Boundary data type TPAR processed, time:      262799.
 Boundary data type TPAR processed, time:      262799.
 Boundary data type TPAR processed, time:      262799.
 Boundary data type TPAR processed, time:      262799.
 Boundary data type TPAR processed, time:      262799.
 Boundary data type TPAR processed, time:      262799.
 Boundary data type TPAR processed, time:      262799.
 Boundary data type TPAR processed, time:      262799.
 Boundary data type TPAR processed, time:      262799.
 Boundary data type TPAR processed, time:      262799.
 Boundary data type TPAR processed, time:      262799.
 Boundary data type TPAR processed, time:      262799.
 Boundary data type TPAR processed, time:      262799.
 Boundary data type TPAR processed, time:      262799.
 Boundary data type TPAR processed, time:      262799.
 Boundary data type TPAR processed, time:      262799.
 Boundary data type TPAR processed, time:      262799.
 Boundary data type TPAR processed, time:      262799.
 Boundary data type TPAR processed, time:      262799.
 Boundary data type TPAR processed, time:      262799.
 Boundary data type TPAR processed, time:      262799.
 Boundary data type TPAR processed, time:      262799.
 Boundary data type TPAR processed, time:      262799.
 Boundary data type TPAR processed, time:      262799.
 Boundary data type TPAR processed, time:      262799.
 Boundary data type TPAR processed, time:      262799.
 Boundary data type TPAR processed, time:      262799.
 Boundary data type TPAR processed, time:      262799.
       not possible to compute accuracy, first iteration

 accuracy OK in  99.87 % of wet grid points ( 98.50 % required)

    
 STOP
