1

                    Execution started at 20251015.015730         



                    ---------------------------------------
                                     SWAN
                    SIMULATION OF WAVES IN NEAR SHORE AREAS
                             VERSION NUMBER 41.51               
                    ---------------------------------------


    
 $*************************HEADING************************
    
 PROJ 'WP' 'wwm'
    
 $********************MODEL INPUT*************************
    
 !
    
 SET LEVEL 0.50 NAUTical
    
 MODE NONST TWOD
    
 !
    
 CGRID UNSTRUC CIRCLE 36 0.0376 1. 36
 Resolution in sigma-space: df/f =  0.0954
    
 READGRID UNSTRUC ADCIRC


 The unstructured grid contains solely triangles generated by SMS/ADCIRC

 Number of vertices          =  150884

 Number of cells             =  291084
    Number of internal cells =  280366
    Number of boundary cells =   10718

 Number of faces             =  442016
    Number of internal faces =  431236
    Number of boundary faces =   10780


 The minimum gridsize =     7.58486
 The maximum gridsize =   653.78009
    
 !
    
 INPGRID WIND REG 143.125 -32.49 0.0 21 25 0.04 0.04 EXC -999 NONSTAT 20150505.000000 1 HR 20150506.000000
    
 READINP WIND 1. 'Barrac2_2015_05_03_0000_to_2015_05_08_0000.dat' 3 0 0 0 FREE
    
 !
    
 BOUN SHAPE JONSWAP 0.02 PEAK DSPR DEGREES
    
 BOU SIDE 1 CCW VARiable FILE  601.24 'node_23658_dist_601.24m.txt' 1 &
   2405.15 'node_85308_dist_2405.15m.txt' 1 &
   4810.32 'node_86684_dist_4810.32m.txt' 1 &
   7616.35 'node_99101_dist_7616.35m.txt' 1 &
   10021.56 'node_88531_dist_10021.56m.txt' 1 &
   12827.63 'node_64386_dist_12827.63m.txt' 1 &
   15232.89 'node_65079_dist_15232.89m.txt' 1 &
   18039.01 'node_99444_dist_18039.01m.txt' 1 &
   21429.75 'node_65373_dist_21429.75m.txt' 1 &
   24781.65 'node_65412_dist_24781.65m.txt' 1 &
   27388.14 'node_99310_dist_27388.14m.txt' 1 &
   31243.91 'node_64376_dist_31243.91m.txt' 1 &
   34038.03 'node_65299_dist_34038.03m.txt' 1 &
   37530.62 'node_65483_dist_37530.62m.txt' 1 &
   40674.00 'node_88367_dist_40674.00m.txt' 1 &
   43118.90 'node_99290_dist_43118.90m.txt' 1 &
   46262.19 'node_64669_dist_46262.19m.txt' 1 &
   48707.11 'node_65073_dist_48707.11m.txt' 1 &
   52898.27 'node_102097_dist_52898.27m.txt' 1 &
   56740.32 'node_99187_dist_56740.32m.txt' 1 &
   60582.27 'node_99279_dist_60582.27m.txt' 1 &
   64075.00 'node_64680_dist_64075.00m.txt' 1 &
   66519.98 'node_87401_dist_66519.98m.txt' 1 &
   68964.86 'node_29331_dist_68964.86m.txt' 1 &
   71409.86 'node_61825_dist_71409.86m.txt' 1 &
   73505.50 'node_99090_dist_73505.50m.txt' 1 &
   76299.78 'node_29476_dist_76299.78m.txt' 1 &
   78395.43 'node_63328_dist_78395.43m.txt' 1 &
   82237.50 'node_64351_dist_82237.50m.txt' 1 &
   85031.81 'node_87993_dist_85031.81m.txt' 1 &
   88524.65 'node_86588_dist_88524.65m.txt' 1 &
   91668.24 'node_99143_dist_91668.24m.txt' 1 &
   95161.11 'node_99377_dist_95161.11m.txt' 1 &
   97955.47 'node_86595_dist_97955.47m.txt' 1 &
   100749.72 'node_63701_dist_100749.72m.txt' 1 &
   104592.02 'node_63812_dist_104592.02m.txt' 1 &
   108084.96 'node_63864_dist_108084.96m.txt' 1 &
   112276.46 'node_63881_dist_112276.46m.txt' 1 &
   115070.88 'node_87755_dist_115070.88m.txt' 1 &
   118664.68 'node_87752_dist_118664.68m.txt' 1 &
   121745.06 'node_64134_dist_121745.06m.txt' 1 &
   125338.78 'node_87799_dist_125338.78m.txt' 1 &
   128419.00 'node_64252_dist_128419.00m.txt' 1 &
   131242.59 'node_98928_dist_131242.59m.txt' 1 &
   134066.16 'node_63190_dist_134066.16m.txt' 1 &
   137146.29 'node_87613_dist_137146.29m.txt' 1 &
   139713.13 'node_29506_dist_139713.13m.txt' 1 &
   143049.97 'node_29313_dist_143049.97m.txt' 1 &
   145103.33 'node_84536_dist_145103.33m.txt' 1 &
   147561.81 'node_24150_dist_147561.81m.txt' 1
    
 
    
 !
    
 GEN3
    
 FRICTION
    
 BREAKING
    
 QUAD
    
 TRIAD
    
 WCAPping
    
 !PROP BSBT
    
 !
    
 POINTS 'BUOYS' FILE   'CS.loc'
    
 TABLE  'BUOYS' HEAD   'Westport.tab' HS TM01 TM02 DSPR DIR RTP TPS DIST DEP BOTLev WIND WATLEV OUT 20150505.000000 1 HR
    
 !
    
 NUM ACCUR 0.01  0.02  0.02  98.5  NONSTAT  100  CSigma  0.5  &  CTheta  0.5
 BLOCK 'COMPGRID' NOHEAD 'Westport.vtk' BOTLEV HS TM01 DIR PDIR TPS DSPR WATLEV WIND OUT 20150505.000000 1 HR
    
 !
    
 TEST 1,0
    
 COMPUTE NONSTAT 20150505.000000 300 SEC 20150506.000000
 Boundary data type TPAR processed, time:      -82801.
 Boundary data type TPAR processed, time:      -79201.
 Boundary data type TPAR processed, time:      -75601.
 Boundary data type TPAR processed, time:      -72001.
 Boundary data type TPAR processed, time:      -68401.
 Boundary data type TPAR processed, time:      -64801.
 Boundary data type TPAR processed, time:      -61201.
 Boundary data type TPAR processed, time:      -57601.
 Boundary data type TPAR processed, time:      -54001.
 Boundary data type TPAR processed, time:      -50401.
 Boundary data type TPAR processed, time:      -46801.
 Boundary data type TPAR processed, time:      -43201.
 Boundary data type TPAR processed, time:      -39601.
 Boundary data type TPAR processed, time:      -36001.
 Boundary data type TPAR processed, time:      -32401.
 Boundary data type TPAR processed, time:      -28801.
 Boundary data type TPAR processed, time:      -25201.
 Boundary data type TPAR processed, time:      -21601.
 Boundary data type TPAR processed, time:      -18001.
 Boundary data type TPAR processed, time:      -14401.
 Boundary data type TPAR processed, time:      -10801.
 Boundary data type TPAR processed, time:       -7201.
 Boundary data type TPAR processed, time:       -3601.
 Boundary data type TPAR processed, time:          -1.
 Boundary data type TPAR processed, time:        3599.
 Boundary data type TPAR processed, time:      -82801.
 Boundary data type TPAR processed, time:      -79201.
 Boundary data type TPAR processed, time:      -75601.
 Boundary data type TPAR processed, time:      -72001.
 Boundary data type TPAR processed, time:      -68401.
 Boundary data type TPAR processed, time:      -64801.
 Boundary data type TPAR processed, time:      -61201.
 Boundary data type TPAR processed, time:      -57601.
 Boundary data type TPAR processed, time:      -54001.
 Boundary data type TPAR processed, time:      -50401.
 Boundary data type TPAR processed, time:      -46801.
 Boundary data type TPAR processed, time:      -43201.
 Boundary data type TPAR processed, time:      -39601.
 Boundary data type TPAR processed, time:      -36001.
 Boundary data type TPAR processed, time:      -32401.
 Boundary data type TPAR processed, time:      -28801.
 Boundary data type TPAR processed, time:      -25201.
 Boundary data type TPAR processed, time:      -21601.
 Boundary data type TPAR processed, time:      -18001.
 Boundary data type TPAR processed, time:      -14401.
 Boundary data type TPAR processed, time:      -10801.
 Boundary data type TPAR processed, time:       -7201.
 Boundary data type TPAR processed, time:       -3601.
 Boundary data type TPAR processed, time:          -1.
 Boundary data type TPAR processed, time:        3599.
 Boundary data type TPAR processed, time:      -82801.
 Boundary data type TPAR processed, time:      -79201.
 Boundary data type TPAR processed, time:      -75601.
 Boundary data type TPAR processed, time:      -72001.
 Boundary data type TPAR processed, time:      -68401.
 Boundary data type TPAR processed, time:      -64801.
 Boundary data type TPAR processed, time:      -61201.
 Boundary data type TPAR processed, time:      -57601.
 Boundary data type TPAR processed, time:      -54001.
 Boundary data type TPAR processed, time:      -50401.
 Boundary data type TPAR processed, time:      -46801.
 Boundary data type TPAR processed, time:      -43201.
 Boundary data type TPAR processed, time:      -39601.
 Boundary data type TPAR processed, time:      -36001.
 Boundary data type TPAR processed, time:      -32401.
 Boundary data type TPAR processed, time:      -28801.
 Boundary data type TPAR processed, time:      -25201.
 Boundary data type TPAR processed, time:      -21601.
 Boundary data type TPAR processed, time:      -18001.
 Boundary data type TPAR processed, time:      -14401.
 Boundary data type TPAR processed, time:      -10801.
 Boundary data type TPAR processed, time:       -7201.
 Boundary data type TPAR processed, time:       -3601.
 Boundary data type TPAR processed, time:          -1.
 Boundary data type TPAR processed, time:        3599.
 Boundary data type TPAR processed, time:      -82801.
 Boundary data type TPAR processed, time:      -79201.
 Boundary data type TPAR processed, time:      -75601.
 Boundary data type TPAR processed, time:      -72001.
 Boundary data type TPAR processed, time:      -68401.
 Boundary data type TPAR processed, time:      -64801.
 Boundary data type TPAR processed, time:      -61201.
 Boundary data type TPAR processed, time:      -57601.
 Boundary data type TPAR processed, time:      -54001.
 Boundary data type TPAR processed, time:      -50401.
 Boundary data type TPAR processed, time:      -46801.
 Boundary data type TPAR processed, time:      -43201.
 Boundary data type TPAR processed, time:      -39601.
 Boundary data type TPAR processed, time:      -36001.
 Boundary data type TPAR processed, time:      -32401.
 Boundary data type TPAR processed, time:      -28801.
 Boundary data type TPAR processed, time:      -25201.
 Boundary data type TPAR processed, time:      -21601.
 Boundary data type TPAR processed, time:      -18001.
 Boundary data type TPAR processed, time:      -14401.
 Boundary data type TPAR processed, time:      -10801.
 Boundary data type TPAR processed, time:       -7201.
 Boundary data type TPAR processed, time:       -3601.
 Boundary data type TPAR processed, time:          -1.
 Boundary data type TPAR processed, time:        3599.
 Boundary data type TPAR processed, time:      -82801.
 Boundary data type TPAR processed, time:      -79201.
 Boundary data type TPAR processed, time:      -75601.
 Boundary data type TPAR processed, time:      -72001.
 Boundary data type TPAR processed, time:      -68401.
 Boundary data type TPAR processed, time:      -64801.
 Boundary data type TPAR processed, time:      -61201.
 Boundary data type TPAR processed, time:      -57601.
 Boundary data type TPAR processed, time:      -54001.
 Boundary data type TPAR processed, time:      -50401.
 Boundary data type TPAR processed, time:      -46801.
 Boundary data type TPAR processed, time:      -43201.
 Boundary data type TPAR processed, time:      -39601.
 Boundary data type TPAR processed, time:      -36001.
 Boundary data type TPAR processed, time:      -32401.
 Boundary data type TPAR processed, time:      -28801.
 Boundary data type TPAR processed, time:      -25201.
 Boundary data type TPAR processed, time:      -21601.
 Boundary data type TPAR processed, time:      -18001.
 Boundary data type TPAR processed, time:      -14401.
 Boundary data type TPAR processed, time:      -10801.
 Boundary data type TPAR processed, time:       -7201.
 Boundary data type TPAR processed, time:       -3601.
 Boundary data type TPAR processed, time:          -1.
 Boundary data type TPAR processed, time:        3599.
 Boundary data type TPAR processed, time:      -82801.
 Boundary data type TPAR processed, time:      -79201.
 Boundary data type TPAR processed, time:      -75601.
 Boundary data type TPAR processed, time:      -72001.
 Boundary data type TPAR processed, time:      -68401.
 Boundary data type TPAR processed, time:      -64801.
 Boundary data type TPAR processed, time:      -61201.
 Boundary data type TPAR processed, time:      -57601.
 Boundary data type TPAR processed, time:      -54001.
 Boundary data type TPAR processed, time:      -50401.
 Boundary data type TPAR processed, time:      -46801.
 Boundary data type TPAR processed, time:      -43201.
 Boundary data type TPAR processed, time:      -39601.
 Boundary data type TPAR processed, time:      -36001.
 Boundary data type TPAR processed, time:      -32401.
 Boundary data type TPAR processed, time:      -28801.
 Boundary data type TPAR processed, time:      -25201.
 Boundary data type TPAR processed, time:      -21601.
 Boundary data type TPAR processed, time:      -18001.
 Boundary data type TPAR processed, time:      -14401.
 Boundary data type TPAR processed, time:      -10801.
 Boundary data type TPAR processed, time:       -7201.
 Boundary data type TPAR processed, time:       -3601.
 Boundary data type TPAR processed, time:          -1.
 Boundary data type TPAR processed, time:        3599.
 Boundary data type TPAR processed, time:      -82801.
 Boundary data type TPAR processed, time:      -79201.
 Boundary data type TPAR processed, time:      -75601.
 Boundary data type TPAR processed, time:      -72001.
 Boundary data type TPAR processed, time:      -68401.
 Boundary data type TPAR processed, time:      -64801.
 Boundary data type TPAR processed, time:      -61201.
 Boundary data type TPAR processed, time:      -57601.
 Boundary data type TPAR processed, time:      -54001.
 Boundary data type TPAR processed, time:      -50401.
 Boundary data type TPAR processed, time:      -46801.
 Boundary data type TPAR processed, time:      -43201.
 Boundary data type TPAR processed, time:      -39601.
 Boundary data type TPAR processed, time:      -36001.
 Boundary data type TPAR processed, time:      -32401.
 Boundary data type TPAR processed, time:      -28801.
 Boundary data type TPAR processed, time:      -25201.
 Boundary data type TPAR processed, time:      -21601.
 Boundary data type TPAR processed, time:      -18001.
 Boundary data type TPAR processed, time:      -14401.
 Boundary data type TPAR processed, time:      -10801.
 Boundary data type TPAR processed, time:       -7201.
 Boundary data type TPAR processed, time:       -3601.
 Boundary data type TPAR processed, time:          -1.
 Boundary data type TPAR processed, time:        3599.
 Boundary data type TPAR processed, time:      -82801.
 Boundary data type TPAR processed, time:      -79201.
 Boundary data type TPAR processed, time:      -75601.
 Boundary data type TPAR processed, time:      -72001.
 Boundary data type TPAR processed, time:      -68401.
 Boundary data type TPAR processed, time:      -64801.
 Boundary data type TPAR processed, time:      -61201.
 Boundary data type TPAR processed, time:      -57601.
 Boundary data type TPAR processed, time:      -54001.
 Boundary data type TPAR processed, time:      -50401.
 Boundary data type TPAR processed, time:      -46801.
 Boundary data type TPAR processed, time:      -43201.
 Boundary data type TPAR processed, time:      -39601.
 Boundary data type TPAR processed, time:      -36001.
 Boundary data type TPAR processed, time:      -32401.
 Boundary data type TPAR processed, time:      -28801.
 Boundary data type TPAR processed, time:      -25201.
 Boundary data type TPAR processed, time:      -21601.
 Boundary data type TPAR processed, time:      -18001.
 Boundary data type TPAR processed, time:      -14401.
 Boundary data type TPAR processed, time:      -10801.
 Boundary data type TPAR processed, time:       -7201.
 Boundary data type TPAR processed, time:       -3601.
 Boundary data type TPAR processed, time:          -1.
 Boundary data type TPAR processed, time:        3599.
 Boundary data type TPAR processed, time:      -82801.
 Boundary data type TPAR processed, time:      -79201.
 Boundary data type TPAR processed, time:      -75601.
 Boundary data type TPAR processed, time:      -72001.
 Boundary data type TPAR processed, time:      -68401.
 Boundary data type TPAR processed, time:      -64801.
 Boundary data type TPAR processed, time:      -61201.
 Boundary data type TPAR processed, time:      -57601.
 Boundary data type TPAR processed, time:      -54001.
 Boundary data type TPAR processed, time:      -50401.
 Boundary data type TPAR processed, time:      -46801.
 Boundary data type TPAR processed, time:      -43201.
 Boundary data type TPAR processed, time:      -39601.
 Boundary data type TPAR processed, time:      -36001.
 Boundary data type TPAR processed, time:      -32401.
 Boundary data type TPAR processed, time:      -28801.
 Boundary data type TPAR processed, time:      -25201.
 Boundary data type TPAR processed, time:      -21601.
 Boundary data type TPAR processed, time:      -18001.
 Boundary data type TPAR processed, time:      -14401.
 Boundary data type TPAR processed, time:      -10801.
 Boundary data type TPAR processed, time:       -7201.
 Boundary data type TPAR processed, time:       -3601.
 Boundary data type TPAR processed, time:          -1.
 Boundary data type TPAR processed, time:        3599.
 Boundary data type TPAR processed, time:      -82801.
 Boundary data type TPAR processed, time:      -79201.
 Boundary data type TPAR processed, time:      -75601.
 Boundary data type TPAR processed, time:      -72001.
 Boundary data type TPAR processed, time:      -68401.
 Boundary data type TPAR processed, time:      -64801.
 Boundary data type TPAR processed, time:      -61201.
 Boundary data type TPAR processed, time:      -57601.
 Boundary data type TPAR processed, time:      -54001.
 Boundary data type TPAR processed, time:      -50401.
 Boundary data type TPAR processed, time:      -46801.
 Boundary data type TPAR processed, time:      -43201.
 Boundary data type TPAR processed, time:      -39601.
 Boundary data type TPAR processed, time:      -36001.
 Boundary data type TPAR processed, time:      -32401.
 Boundary data type TPAR processed, time:      -28801.
 Boundary data type TPAR processed, time:      -25201.
 Boundary data type TPAR processed, time:      -21601.
 Boundary data type TPAR processed, time:      -18001.
 Boundary data type TPAR processed, time:      -14401.
 Boundary data type TPAR processed, time:      -10801.
 Boundary data type TPAR processed, time:       -7201.
 Boundary data type TPAR processed, time:       -3601.
 Boundary data type TPAR processed, time:          -1.
 Boundary data type TPAR processed, time:        3599.
 Boundary data type TPAR processed, time:      -82801.
 Boundary data type TPAR processed, time:      -79201.
 Boundary data type TPAR processed, time:      -75601.
 Boundary data type TPAR processed, time:      -72001.
 Boundary data type TPAR processed, time:      -68401.
 Boundary data type TPAR processed, time:      -64801.
 Boundary data type TPAR processed, time:      -61201.
 Boundary data type TPAR processed, time:      -57601.
 Boundary data type TPAR processed, time:      -54001.
 Boundary data type TPAR processed, time:      -50401.
 Boundary data type TPAR processed, time:      -46801.
 Boundary data type TPAR processed, time:      -43201.
 Boundary data type TPAR processed, time:      -39601.
 Boundary data type TPAR processed, time:      -36001.
 Boundary data type TPAR processed, time:      -32401.
 Boundary data type TPAR processed, time:      -28801.
 Boundary data type TPAR processed, time:      -25201.
 Boundary data type TPAR processed, time:      -21601.
 Boundary data type TPAR processed, time:      -18001.
 Boundary data type TPAR processed, time:      -14401.
 Boundary data type TPAR processed, time:      -10801.
 Boundary data type TPAR processed, time:       -7201.
 Boundary data type TPAR processed, time:       -3601.
 Boundary data type TPAR processed, time:          -1.
 Boundary data type TPAR processed, time:        3599.
 Boundary data type TPAR processed, time:      -82801.
 Boundary data type TPAR processed, time:      -79201.
 Boundary data type TPAR processed, time:      -75601.
 Boundary data type TPAR processed, time:      -72001.
 Boundary data type TPAR processed, time:      -68401.
 Boundary data type TPAR processed, time:      -64801.
 Boundary data type TPAR processed, time:      -61201.
 Boundary data type TPAR processed, time:      -57601.
 Boundary data type TPAR processed, time:      -54001.
 Boundary data type TPAR processed, time:      -50401.
 Boundary data type TPAR processed, time:      -46801.
 Boundary data type TPAR processed, time:      -43201.
 Boundary data type TPAR processed, time:      -39601.
 Boundary data type TPAR processed, time:      -36001.
 Boundary data type TPAR processed, time:      -32401.
 Boundary data type TPAR processed, time:      -28801.
 Boundary data type TPAR processed, time:      -25201.
 Boundary data type TPAR processed, time:      -21601.
 Boundary data type TPAR processed, time:      -18001.
 Boundary data type TPAR processed, time:      -14401.
 Boundary data type TPAR processed, time:      -10801.
 Boundary data type TPAR processed, time:       -7201.
 Boundary data type TPAR processed, time:       -3601.
 Boundary data type TPAR processed, time:          -1.
 Boundary data type TPAR processed, time:        3599.
 Boundary data type TPAR processed, time:      -82801.
 Boundary data type TPAR processed, time:      -79201.
 Boundary data type TPAR processed, time:      -75601.
 Boundary data type TPAR processed, time:      -72001.
 Boundary data type TPAR processed, time:      -68401.
 Boundary data type TPAR processed, time:      -64801.
 Boundary data type TPAR processed, time:      -61201.
 Boundary data type TPAR processed, time:      -57601.
 Boundary data type TPAR processed, time:      -54001.
 Boundary data type TPAR processed, time:      -50401.
 Boundary data type TPAR processed, time:      -46801.
 Boundary data type TPAR processed, time:      -43201.
 Boundary data type TPAR processed, time:      -39601.
 Boundary data type TPAR processed, time:      -36001.
 Boundary data type TPAR processed, time:      -32401.
 Boundary data type TPAR processed, time:      -28801.
 Boundary data type TPAR processed, time:      -25201.
 Boundary data type TPAR processed, time:      -21601.
 Boundary data type TPAR processed, time:      -18001.
 Boundary data type TPAR processed, time:      -14401.
 Boundary data type TPAR processed, time:      -10801.
 Boundary data type TPAR processed, time:       -7201.
 Boundary data type TPAR processed, time:       -3601.
 Boundary data type TPAR processed, time:          -1.
 Boundary data type TPAR processed, time:        3599.
 Boundary data type TPAR processed, time:      -82801.
 Boundary data type TPAR processed, time:      -79201.
 Boundary data type TPAR processed, time:      -75601.
 Boundary data type TPAR processed, time:      -72001.
 Boundary data type TPAR processed, time:      -68401.
 Boundary data type TPAR processed, time:      -64801.
 Boundary data type TPAR processed, time:      -61201.
 Boundary data type TPAR processed, time:      -57601.
 Boundary data type TPAR processed, time:      -54001.
 Boundary data type TPAR processed, time:      -50401.
 Boundary data type TPAR processed, time:      -46801.
 Boundary data type TPAR processed, time:      -43201.
 Boundary data type TPAR processed, time:      -39601.
 Boundary data type TPAR processed, time:      -36001.
 Boundary data type TPAR processed, time:      -32401.
 Boundary data type TPAR processed, time:      -28801.
 Boundary data type TPAR processed, time:      -25201.
 Boundary data type TPAR processed, time:      -21601.
 Boundary data type TPAR processed, time:      -18001.
 Boundary data type TPAR processed, time:      -14401.
 Boundary data type TPAR processed, time:      -10801.
 Boundary data type TPAR processed, time:       -7201.
 Boundary data type TPAR processed, time:       -3601.
 Boundary data type TPAR processed, time:          -1.
 Boundary data type TPAR processed, time:        3599.
 Boundary data type TPAR processed, time:      -82801.
 Boundary data type TPAR processed, time:      -79201.
 Boundary data type TPAR processed, time:      -75601.
 Boundary data type TPAR processed, time:      -72001.
 Boundary data type TPAR processed, time:      -68401.
 Boundary data type TPAR processed, time:      -64801.
 Boundary data type TPAR processed, time:      -61201.
 Boundary data type TPAR processed, time:      -57601.
 Boundary data type TPAR processed, time:      -54001.
 Boundary data type TPAR processed, time:      -50401.
 Boundary data type TPAR processed, time:      -46801.
 Boundary data type TPAR processed, time:      -43201.
 Boundary data type TPAR processed, time:      -39601.
 Boundary data type TPAR processed, time:      -36001.
 Boundary data type TPAR processed, time:      -32401.
 Boundary data type TPAR processed, time:      -28801.
 Boundary data type TPAR processed, time:      -25201.
 Boundary data type TPAR processed, time:      -21601.
 Boundary data type TPAR processed, time:      -18001.
 Boundary data type TPAR processed, time:      -14401.
 Boundary data type TPAR processed, time:      -10801.
 Boundary data type TPAR processed, time:       -7201.
 Boundary data type TPAR processed, time:       -3601.
 Boundary data type TPAR processed, time:          -1.
 Boundary data type TPAR processed, time:        3599.
 Boundary data type TPAR processed, time:      -82801.
 Boundary data type TPAR processed, time:      -79201.
 Boundary data type TPAR processed, time:      -75601.
 Boundary data type TPAR processed, time:      -72001.
 Boundary data type TPAR processed, time:      -68401.
 Boundary data type TPAR processed, time:      -64801.
 Boundary data type TPAR processed, time:      -61201.
 Boundary data type TPAR processed, time:      -57601.
 Boundary data type TPAR processed, time:      -54001.
 Boundary data type TPAR processed, time:      -50401.
 Boundary data type TPAR processed, time:      -46801.
 Boundary data type TPAR processed, time:      -43201.
 Boundary data type TPAR processed, time:      -39601.
 Boundary data type TPAR processed, time:      -36001.
 Boundary data type TPAR processed, time:      -32401.
 Boundary data type TPAR processed, time:      -28801.
 Boundary data type TPAR processed, time:      -25201.
 Boundary data type TPAR processed, time:      -21601.
 Boundary data type TPAR processed, time:      -18001.
 Boundary data type TPAR processed, time:      -14401.
 Boundary data type TPAR processed, time:      -10801.
 Boundary data type TPAR processed, time:       -7201.
 Boundary data type TPAR processed, time:       -3601.
 Boundary data type TPAR processed, time:          -1.
 Boundary data type TPAR processed, time:        3599.
 Boundary data type TPAR processed, time:      -82801.
 Boundary data type TPAR processed, time:      -79201.
 Boundary data type TPAR processed, time:      -75601.
 Boundary data type TPAR processed, time:      -72001.
 Boundary data type TPAR processed, time:      -68401.
 Boundary data type TPAR processed, time:      -64801.
 Boundary data type TPAR processed, time:      -61201.
 Boundary data type TPAR processed, time:      -57601.
 Boundary data type TPAR processed, time:      -54001.
 Boundary data type TPAR processed, time:      -50401.
 Boundary data type TPAR processed, time:      -46801.
 Boundary data type TPAR processed, time:      -43201.
 Boundary data type TPAR processed, time:      -39601.
 Boundary data type TPAR processed, time:      -36001.
 Boundary data type TPAR processed, time:      -32401.
 Boundary data type TPAR processed, time:      -28801.
 Boundary data type TPAR processed, time:      -25201.
 Boundary data type TPAR processed, time:      -21601.
 Boundary data type TPAR processed, time:      -18001.
 Boundary data type TPAR processed, time:      -14401.
 Boundary data type TPAR processed, time:      -10801.
 Boundary data type TPAR processed, time:       -7201.
 Boundary data type TPAR processed, time:       -3601.
 Boundary data type TPAR processed, time:          -1.
 Boundary data type TPAR processed, time:        3599.
 Boundary data type TPAR processed, time:      -82801.
 Boundary data type TPAR processed, time:      -79201.
 Boundary data type TPAR processed, time:      -75601.
 Boundary data type TPAR processed, time:      -72001.
 Boundary data type TPAR processed, time:      -68401.
 Boundary data type TPAR processed, time:      -64801.
 Boundary data type TPAR processed, time:      -61201.
 Boundary data type TPAR processed, time:      -57601.
 Boundary data type TPAR processed, time:      -54001.
 Boundary data type TPAR processed, time:      -50401.
 Boundary data type TPAR processed, time:      -46801.
 Boundary data type TPAR processed, time:      -43201.
 Boundary data type TPAR processed, time:      -39601.
 Boundary data type TPAR processed, time:      -36001.
 Boundary data type TPAR processed, time:      -32401.
 Boundary data type TPAR processed, time:      -28801.
 Boundary data type TPAR processed, time:      -25201.
 Boundary data type TPAR processed, time:      -21601.
 Boundary data type TPAR processed, time:      -18001.
 Boundary data type TPAR processed, time:      -14401.
 Boundary data type TPAR processed, time:      -10801.
 Boundary data type TPAR processed, time:       -7201.
 Boundary data type TPAR processed, time:       -3601.
 Boundary data type TPAR processed, time:          -1.
 Boundary data type TPAR processed, time:        3599.
 Boundary data type TPAR processed, time:      -82801.
 Boundary data type TPAR processed, time:      -79201.
 Boundary data type TPAR processed, time:      -75601.
 Boundary data type TPAR processed, time:      -72001.
 Boundary data type TPAR processed, time:      -68401.
 Boundary data type TPAR processed, time:      -64801.
 Boundary data type TPAR processed, time:      -61201.
 Boundary data type TPAR processed, time:      -57601.
 Boundary data type TPAR processed, time:      -54001.
 Boundary data type TPAR processed, time:      -50401.
 Boundary data type TPAR processed, time:      -46801.
 Boundary data type TPAR processed, time:      -43201.
 Boundary data type TPAR processed, time:      -39601.
 Boundary data type TPAR processed, time:      -36001.
 Boundary data type TPAR processed, time:      -32401.
 Boundary data type TPAR processed, time:      -28801.
 Boundary data type TPAR processed, time:      -25201.
 Boundary data type TPAR processed, time:      -21601.
 Boundary data type TPAR processed, time:      -18001.
 Boundary data type TPAR processed, time:      -14401.
 Boundary data type TPAR processed, time:      -10801.
 Boundary data type TPAR processed, time:       -7201.
 Boundary data type TPAR processed, time:       -3601.
 Boundary data type TPAR processed, time:          -1.
 Boundary data type TPAR processed, time:        3599.
 Boundary data type TPAR processed, time:      -82801.
 Boundary data type TPAR processed, time:      -79201.
 Boundary data type TPAR processed, time:      -75601.
 Boundary data type TPAR processed, time:      -72001.
 Boundary data type TPAR processed, time:      -68401.
 Boundary data type TPAR processed, time:      -64801.
 Boundary data type TPAR processed, time:      -61201.
 Boundary data type TPAR processed, time:      -57601.
 Boundary data type TPAR processed, time:      -54001.
 Boundary data type TPAR processed, time:      -50401.
 Boundary data type TPAR processed, time:      -46801.
 Boundary data type TPAR processed, time:      -43201.
 Boundary data type TPAR processed, time:      -39601.
 Boundary data type TPAR processed, time:      -36001.
 Boundary data type TPAR processed, time:      -32401.
 Boundary data type TPAR processed, time:      -28801.
 Boundary data type TPAR processed, time:      -25201.
 Boundary data type TPAR processed, time:      -21601.
 Boundary data type TPAR processed, time:      -18001.
 Boundary data type TPAR processed, time:      -14401.
 Boundary data type TPAR processed, time:      -10801.
 Boundary data type TPAR processed, time:       -7201.
 Boundary data type TPAR processed, time:       -3601.
 Boundary data type TPAR processed, time:          -1.
 Boundary data type TPAR processed, time:        3599.
 Boundary data type TPAR processed, time:      -82801.
 Boundary data type TPAR processed, time:      -79201.
 Boundary data type TPAR processed, time:      -75601.
 Boundary data type TPAR processed, time:      -72001.
 Boundary data type TPAR processed, time:      -68401.
 Boundary data type TPAR processed, time:      -64801.
 Boundary data type TPAR processed, time:      -61201.
 Boundary data type TPAR processed, time:      -57601.
 Boundary data type TPAR processed, time:      -54001.
 Boundary data type TPAR processed, time:      -50401.
 Boundary data type TPAR processed, time:      -46801.
 Boundary data type TPAR processed, time:      -43201.
 Boundary data type TPAR processed, time:      -39601.
 Boundary data type TPAR processed, time:      -36001.
 Boundary data type TPAR processed, time:      -32401.
 Boundary data type TPAR processed, time:      -28801.
 Boundary data type TPAR processed, time:      -25201.
 Boundary data type TPAR processed, time:      -21601.
 Boundary data type TPAR processed, time:      -18001.
 Boundary data type TPAR processed, time:      -14401.
 Boundary data type TPAR processed, time:      -10801.
 Boundary data type TPAR processed, time:       -7201.
 Boundary data type TPAR processed, time:       -3601.
 Boundary data type TPAR processed, time:          -1.
 Boundary data type TPAR processed, time:        3599.
 Boundary data type TPAR processed, time:      -82801.
 Boundary data type TPAR processed, time:      -79201.
 Boundary data type TPAR processed, time:      -75601.
 Boundary data type TPAR processed, time:      -72001.
 Boundary data type TPAR processed, time:      -68401.
 Boundary data type TPAR processed, time:      -64801.
 Boundary data type TPAR processed, time:      -61201.
 Boundary data type TPAR processed, time:      -57601.
 Boundary data type TPAR processed, time:      -54001.
 Boundary data type TPAR processed, time:      -50401.
 Boundary data type TPAR processed, time:      -46801.
 Boundary data type TPAR processed, time:      -43201.
 Boundary data type TPAR processed, time:      -39601.
 Boundary data type TPAR processed, time:      -36001.
 Boundary data type TPAR processed, time:      -32401.
 Boundary data type TPAR processed, time:      -28801.
 Boundary data type TPAR processed, time:      -25201.
 Boundary data type TPAR processed, time:      -21601.
 Boundary data type TPAR processed, time:      -18001.
 Boundary data type TPAR processed, time:      -14401.
 Boundary data type TPAR processed, time:      -10801.
 Boundary data type TPAR processed, time:       -7201.
 Boundary data type TPAR processed, time:       -3601.
 Boundary data type TPAR processed, time:          -1.
 Boundary data type TPAR processed, time:        3599.
 Boundary data type TPAR processed, time:      -82801.
 Boundary data type TPAR processed, time:      -79201.
 Boundary data type TPAR processed, time:      -75601.
 Boundary data type TPAR processed, time:      -72001.
 Boundary data type TPAR processed, time:      -68401.
 Boundary data type TPAR processed, time:      -64801.
 Boundary data type TPAR processed, time:      -61201.
 Boundary data type TPAR processed, time:      -57601.
 Boundary data type TPAR processed, time:      -54001.
 Boundary data type TPAR processed, time:      -50401.
 Boundary data type TPAR processed, time:      -46801.
 Boundary data type TPAR processed, time:      -43201.
 Boundary data type TPAR processed, time:      -39601.
 Boundary data type TPAR processed, time:      -36001.
 Boundary data type TPAR processed, time:      -32401.
 Boundary data type TPAR processed, time:      -28801.
 Boundary data type TPAR processed, time:      -25201.
 Boundary data type TPAR processed, time:      -21601.
 Boundary data type TPAR processed, time:      -18001.
 Boundary data type TPAR processed, time:      -14401.
 Boundary data type TPAR processed, time:      -10801.
 Boundary data type TPAR processed, time:       -7201.
 Boundary data type TPAR processed, time:       -3601.
 Boundary data type TPAR processed, time:          -1.
 Boundary data type TPAR processed, time:        3599.
 Boundary data type TPAR processed, time:      -82801.
 Boundary data type TPAR processed, time:      -79201.
 Boundary data type TPAR processed, time:      -75601.
 Boundary data type TPAR processed, time:      -72001.
 Boundary data type TPAR processed, time:      -68401.
 Boundary data type TPAR processed, time:      -64801.
 Boundary data type TPAR processed, time:      -61201.
 Boundary data type TPAR processed, time:      -57601.
 Boundary data type TPAR processed, time:      -54001.
 Boundary data type TPAR processed, time:      -50401.
 Boundary data type TPAR processed, time:      -46801.
 Boundary data type TPAR processed, time:      -43201.
 Boundary data type TPAR processed, time:      -39601.
 Boundary data type TPAR processed, time:      -36001.
 Boundary data type TPAR processed, time:      -32401.
 Boundary data type TPAR processed, time:      -28801.
 Boundary data type TPAR processed, time:      -25201.
 Boundary data type TPAR processed, time:      -21601.
 Boundary data type TPAR processed, time:      -18001.
 Boundary data type TPAR processed, time:      -14401.
 Boundary data type TPAR processed, time:      -10801.
 Boundary data type TPAR processed, time:       -7201.
 Boundary data type TPAR processed, time:       -3601.
 Boundary data type TPAR processed, time:          -1.
 Boundary data type TPAR processed, time:        3599.
 Boundary data type TPAR processed, time:      -82801.
 Boundary data type TPAR processed, time:      -79201.
 Boundary data type TPAR processed, time:      -75601.
 Boundary data type TPAR processed, time:      -72001.
 Boundary data type TPAR processed, time:      -68401.
 Boundary data type TPAR processed, time:      -64801.
 Boundary data type TPAR processed, time:      -61201.
 Boundary data type TPAR processed, time:      -57601.
 Boundary data type TPAR processed, time:      -54001.
 Boundary data type TPAR processed, time:      -50401.
 Boundary data type TPAR processed, time:      -46801.
 Boundary data type TPAR processed, time:      -43201.
 Boundary data type TPAR processed, time:      -39601.
 Boundary data type TPAR processed, time:      -36001.
 Boundary data type TPAR processed, time:      -32401.
 Boundary data type TPAR processed, time:      -28801.
 Boundary data type TPAR processed, time:      -25201.
 Boundary data type TPAR processed, time:      -21601.
 Boundary data type TPAR processed, time:      -18001.
 Boundary data type TPAR processed, time:      -14401.
 Boundary data type TPAR processed, time:      -10801.
 Boundary data type TPAR processed, time:       -7201.
 Boundary data type TPAR processed, time:       -3601.
 Boundary data type TPAR processed, time:          -1.
 Boundary data type TPAR processed, time:        3599.
 Boundary data type TPAR processed, time:      -82801.
 Boundary data type TPAR processed, time:      -79201.
 Boundary data type TPAR processed, time:      -75601.
 Boundary data type TPAR processed, time:      -72001.
 Boundary data type TPAR processed, time:      -68401.
 Boundary data type TPAR processed, time:      -64801.
 Boundary data type TPAR processed, time:      -61201.
 Boundary data type TPAR processed, time:      -57601.
 Boundary data type TPAR processed, time:      -54001.
 Boundary data type TPAR processed, time:      -50401.
 Boundary data type TPAR processed, time:      -46801.
 Boundary data type TPAR processed, time:      -43201.
 Boundary data type TPAR processed, time:      -39601.
 Boundary data type TPAR processed, time:      -36001.
 Boundary data type TPAR processed, time:      -32401.
 Boundary data type TPAR processed, time:      -28801.
 Boundary data type TPAR processed, time:      -25201.
 Boundary data type TPAR processed, time:      -21601.
 Boundary data type TPAR processed, time:      -18001.
 Boundary data type TPAR processed, time:      -14401.
 Boundary data type TPAR processed, time:      -10801.
 Boundary data type TPAR processed, time:       -7201.
 Boundary data type TPAR processed, time:       -3601.
 Boundary data type TPAR processed, time:          -1.
 Boundary data type TPAR processed, time:        3599.
 Boundary data type TPAR processed, time:      -82801.
 Boundary data type TPAR processed, time:      -79201.
 Boundary data type TPAR processed, time:      -75601.
 Boundary data type TPAR processed, time:      -72001.
 Boundary data type TPAR processed, time:      -68401.
 Boundary data type TPAR processed, time:      -64801.
 Boundary data type TPAR processed, time:      -61201.
 Boundary data type TPAR processed, time:      -57601.
 Boundary data type TPAR processed, time:      -54001.
 Boundary data type TPAR processed, time:      -50401.
 Boundary data type TPAR processed, time:      -46801.
 Boundary data type TPAR processed, time:      -43201.
 Boundary data type TPAR processed, time:      -39601.
 Boundary data type TPAR processed, time:      -36001.
 Boundary data type TPAR processed, time:      -32401.
 Boundary data type TPAR processed, time:      -28801.
 Boundary data type TPAR processed, time:      -25201.
 Boundary data type TPAR processed, time:      -21601.
 Boundary data type TPAR processed, time:      -18001.
 Boundary data type TPAR processed, time:      -14401.
 Boundary data type TPAR processed, time:      -10801.
 Boundary data type TPAR processed, time:       -7201.
 Boundary data type TPAR processed, time:       -3601.
 Boundary data type TPAR processed, time:          -1.
 Boundary data type TPAR processed, time:        3599.
 Boundary data type TPAR processed, time:      -82801.
 Boundary data type TPAR processed, time:      -79201.
 Boundary data type TPAR processed, time:      -75601.
 Boundary data type TPAR processed, time:      -72001.
 Boundary data type TPAR processed, time:      -68401.
 Boundary data type TPAR processed, time:      -64801.
 Boundary data type TPAR processed, time:      -61201.
 Boundary data type TPAR processed, time:      -57601.
 Boundary data type TPAR processed, time:      -54001.
 Boundary data type TPAR processed, time:      -50401.
 Boundary data type TPAR processed, time:      -46801.
 Boundary data type TPAR processed, time:      -43201.
 Boundary data type TPAR processed, time:      -39601.
 Boundary data type TPAR processed, time:      -36001.
 Boundary data type TPAR processed, time:      -32401.
 Boundary data type TPAR processed, time:      -28801.
 Boundary data type TPAR processed, time:      -25201.
 Boundary data type TPAR processed, time:      -21601.
 Boundary data type TPAR processed, time:      -18001.
 Boundary data type TPAR processed, time:      -14401.
 Boundary data type TPAR processed, time:      -10801.
 Boundary data type TPAR processed, time:       -7201.
 Boundary data type TPAR processed, time:       -3601.
 Boundary data type TPAR processed, time:          -1.
 Boundary data type TPAR processed, time:        3599.
 Boundary data type TPAR processed, time:      -82801.
 Boundary data type TPAR processed, time:      -79201.
 Boundary data type TPAR processed, time:      -75601.
 Boundary data type TPAR processed, time:      -72001.
 Boundary data type TPAR processed, time:      -68401.
 Boundary data type TPAR processed, time:      -64801.
 Boundary data type TPAR processed, time:      -61201.
 Boundary data type TPAR processed, time:      -57601.
 Boundary data type TPAR processed, time:      -54001.
 Boundary data type TPAR processed, time:      -50401.
 Boundary data type TPAR processed, time:      -46801.
 Boundary data type TPAR processed, time:      -43201.
 Boundary data type TPAR processed, time:      -39601.
 Boundary data type TPAR processed, time:      -36001.
 Boundary data type TPAR processed, time:      -32401.
 Boundary data type TPAR processed, time:      -28801.
 Boundary data type TPAR processed, time:      -25201.
 Boundary data type TPAR processed, time:      -21601.
 Boundary data type TPAR processed, time:      -18001.
 Boundary data type TPAR processed, time:      -14401.
 Boundary data type TPAR processed, time:      -10801.
 Boundary data type TPAR processed, time:       -7201.
 Boundary data type TPAR processed, time:       -3601.
 Boundary data type TPAR processed, time:          -1.
 Boundary data type TPAR processed, time:        3599.
 Boundary data type TPAR processed, time:      -82801.
 Boundary data type TPAR processed, time:      -79201.
 Boundary data type TPAR processed, time:      -75601.
 Boundary data type TPAR processed, time:      -72001.
 Boundary data type TPAR processed, time:      -68401.
 Boundary data type TPAR processed, time:      -64801.
 Boundary data type TPAR processed, time:      -61201.
 Boundary data type TPAR processed, time:      -57601.
 Boundary data type TPAR processed, time:      -54001.
 Boundary data type TPAR processed, time:      -50401.
 Boundary data type TPAR processed, time:      -46801.
 Boundary data type TPAR processed, time:      -43201.
 Boundary data type TPAR processed, time:      -39601.
 Boundary data type TPAR processed, time:      -36001.
 Boundary data type TPAR processed, time:      -32401.
 Boundary data type TPAR processed, time:      -28801.
 Boundary data type TPAR processed, time:      -25201.
 Boundary data type TPAR processed, time:      -21601.
 Boundary data type TPAR processed, time:      -18001.
 Boundary data type TPAR processed, time:      -14401.
 Boundary data type TPAR processed, time:      -10801.
 Boundary data type TPAR processed, time:       -7201.
 Boundary data type TPAR processed, time:       -3601.
 Boundary data type TPAR processed, time:          -1.
 Boundary data type TPAR processed, time:        3599.
 Boundary data type TPAR processed, time:      -82801.
 Boundary data type TPAR processed, time:      -79201.
 Boundary data type TPAR processed, time:      -75601.
 Boundary data type TPAR processed, time:      -72001.
 Boundary data type TPAR processed, time:      -68401.
 Boundary data type TPAR processed, time:      -64801.
 Boundary data type TPAR processed, time:      -61201.
 Boundary data type TPAR processed, time:      -57601.
 Boundary data type TPAR processed, time:      -54001.
 Boundary data type TPAR processed, time:      -50401.
 Boundary data type TPAR processed, time:      -46801.
 Boundary data type TPAR processed, time:      -43201.
 Boundary data type TPAR processed, time:      -39601.
 Boundary data type TPAR processed, time:      -36001.
 Boundary data type TPAR processed, time:      -32401.
 Boundary data type TPAR processed, time:      -28801.
 Boundary data type TPAR processed, time:      -25201.
 Boundary data type TPAR processed, time:      -21601.
 Boundary data type TPAR processed, time:      -18001.
 Boundary data type TPAR processed, time:      -14401.
 Boundary data type TPAR processed, time:      -10801.
 Boundary data type TPAR processed, time:       -7201.
 Boundary data type TPAR processed, time:       -3601.
 Boundary data type TPAR processed, time:          -1.
 Boundary data type TPAR processed, time:        3599.
 Boundary data type TPAR processed, time:      -82801.
 Boundary data type TPAR processed, time:      -79201.
 Boundary data type TPAR processed, time:      -75601.
 Boundary data type TPAR processed, time:      -72001.
 Boundary data type TPAR processed, time:      -68401.
 Boundary data type TPAR processed, time:      -64801.
 Boundary data type TPAR processed, time:      -61201.
 Boundary data type TPAR processed, time:      -57601.
 Boundary data type TPAR processed, time:      -54001.
 Boundary data type TPAR processed, time:      -50401.
 Boundary data type TPAR processed, time:      -46801.
 Boundary data type TPAR processed, time:      -43201.
 Boundary data type TPAR processed, time:      -39601.
 Boundary data type TPAR processed, time:      -36001.
 Boundary data type TPAR processed, time:      -32401.
 Boundary data type TPAR processed, time:      -28801.
 Boundary data type TPAR processed, time:      -25201.
 Boundary data type TPAR processed, time:      -21601.
 Boundary data type TPAR processed, time:      -18001.
 Boundary data type TPAR processed, time:      -14401.
 Boundary data type TPAR processed, time:      -10801.
 Boundary data type TPAR processed, time:       -7201.
 Boundary data type TPAR processed, time:       -3601.
 Boundary data type TPAR processed, time:          -1.
 Boundary data type TPAR processed, time:        3599.
 Boundary data type TPAR processed, time:      -82801.
 Boundary data type TPAR processed, time:      -79201.
 Boundary data type TPAR processed, time:      -75601.
 Boundary data type TPAR processed, time:      -72001.
 Boundary data type TPAR processed, time:      -68401.
 Boundary data type TPAR processed, time:      -64801.
 Boundary data type TPAR processed, time:      -61201.
 Boundary data type TPAR processed, time:      -57601.
 Boundary data type TPAR processed, time:      -54001.
 Boundary data type TPAR processed, time:      -50401.
 Boundary data type TPAR processed, time:      -46801.
 Boundary data type TPAR processed, time:      -43201.
 Boundary data type TPAR processed, time:      -39601.
 Boundary data type TPAR processed, time:      -36001.
 Boundary data type TPAR processed, time:      -32401.
 Boundary data type TPAR processed, time:      -28801.
 Boundary data type TPAR processed, time:      -25201.
 Boundary data type TPAR processed, time:      -21601.
 Boundary data type TPAR processed, time:      -18001.
 Boundary data type TPAR processed, time:      -14401.
 Boundary data type TPAR processed, time:      -10801.
 Boundary data type TPAR processed, time:       -7201.
 Boundary data type TPAR processed, time:       -3601.
 Boundary data type TPAR processed, time:          -1.
 Boundary data type TPAR processed, time:        3599.
 Boundary data type TPAR processed, time:      -82801.
 Boundary data type TPAR processed, time:      -79201.
 Boundary data type TPAR processed, time:      -75601.
 Boundary data type TPAR processed, time:      -72001.
 Boundary data type TPAR processed, time:      -68401.
 Boundary data type TPAR processed, time:      -64801.
 Boundary data type TPAR processed, time:      -61201.
 Boundary data type TPAR processed, time:      -57601.
 Boundary data type TPAR processed, time:      -54001.
 Boundary data type TPAR processed, time:      -50401.
 Boundary data type TPAR processed, time:      -46801.
 Boundary data type TPAR processed, time:      -43201.
 Boundary data type TPAR processed, time:      -39601.
 Boundary data type TPAR processed, time:      -36001.
 Boundary data type TPAR processed, time:      -32401.
 Boundary data type TPAR processed, time:      -28801.
 Boundary data type TPAR processed, time:      -25201.
 Boundary data type TPAR processed, time:      -21601.
 Boundary data type TPAR processed, time:      -18001.
 Boundary data type TPAR processed, time:      -14401.
 Boundary data type TPAR processed, time:      -10801.
 Boundary data type TPAR processed, time:       -7201.
 Boundary data type TPAR processed, time:       -3601.
 Boundary data type TPAR processed, time:          -1.
 Boundary data type TPAR processed, time:        3599.
 Boundary data type TPAR processed, time:      -82801.
 Boundary data type TPAR processed, time:      -79201.
 Boundary data type TPAR processed, time:      -75601.
 Boundary data type TPAR processed, time:      -72001.
 Boundary data type TPAR processed, time:      -68401.
 Boundary data type TPAR processed, time:      -64801.
 Boundary data type TPAR processed, time:      -61201.
 Boundary data type TPAR processed, time:      -57601.
 Boundary data type TPAR processed, time:      -54001.
 Boundary data type TPAR processed, time:      -50401.
 Boundary data type TPAR processed, time:      -46801.
 Boundary data type TPAR processed, time:      -43201.
 Boundary data type TPAR processed, time:      -39601.
 Boundary data type TPAR processed, time:      -36001.
 Boundary data type TPAR processed, time:      -32401.
 Boundary data type TPAR processed, time:      -28801.
 Boundary data type TPAR processed, time:      -25201.
 Boundary data type TPAR processed, time:      -21601.
 Boundary data type TPAR processed, time:      -18001.
 Boundary data type TPAR processed, time:      -14401.
 Boundary data type TPAR processed, time:      -10801.
 Boundary data type TPAR processed, time:       -7201.
 Boundary data type TPAR processed, time:       -3601.
 Boundary data type TPAR processed, time:          -1.
 Boundary data type TPAR processed, time:        3599.
 Boundary data type TPAR processed, time:      -82801.
 Boundary data type TPAR processed, time:      -79201.
 Boundary data type TPAR processed, time:      -75601.
 Boundary data type TPAR processed, time:      -72001.
 Boundary data type TPAR processed, time:      -68401.
 Boundary data type TPAR processed, time:      -64801.
 Boundary data type TPAR processed, time:      -61201.
 Boundary data type TPAR processed, time:      -57601.
 Boundary data type TPAR processed, time:      -54001.
 Boundary data type TPAR processed, time:      -50401.
 Boundary data type TPAR processed, time:      -46801.
 Boundary data type TPAR processed, time:      -43201.
 Boundary data type TPAR processed, time:      -39601.
 Boundary data type TPAR processed, time:      -36001.
 Boundary data type TPAR processed, time:      -32401.
 Boundary data type TPAR processed, time:      -28801.
 Boundary data type TPAR processed, time:      -25201.
 Boundary data type TPAR processed, time:      -21601.
 Boundary data type TPAR processed, time:      -18001.
 Boundary data type TPAR processed, time:      -14401.
 Boundary data type TPAR processed, time:      -10801.
 Boundary data type TPAR processed, time:       -7201.
 Boundary data type TPAR processed, time:       -3601.
 Boundary data type TPAR processed, time:          -1.
 Boundary data type TPAR processed, time:        3599.
 Boundary data type TPAR processed, time:      -82801.
 Boundary data type TPAR processed, time:      -79201.
 Boundary data type TPAR processed, time:      -75601.
 Boundary data type TPAR processed, time:      -72001.
 Boundary data type TPAR processed, time:      -68401.
 Boundary data type TPAR processed, time:      -64801.
 Boundary data type TPAR processed, time:      -61201.
 Boundary data type TPAR processed, time:      -57601.
 Boundary data type TPAR processed, time:      -54001.
 Boundary data type TPAR processed, time:      -50401.
 Boundary data type TPAR processed, time:      -46801.
 Boundary data type TPAR processed, time:      -43201.
 Boundary data type TPAR processed, time:      -39601.
 Boundary data type TPAR processed, time:      -36001.
 Boundary data type TPAR processed, time:      -32401.
 Boundary data type TPAR processed, time:      -28801.
 Boundary data type TPAR processed, time:      -25201.
 Boundary data type TPAR processed, time:      -21601.
 Boundary data type TPAR processed, time:      -18001.
 Boundary data type TPAR processed, time:      -14401.
 Boundary data type TPAR processed, time:      -10801.
 Boundary data type TPAR processed, time:       -7201.
 Boundary data type TPAR processed, time:       -3601.
 Boundary data type TPAR processed, time:          -1.
 Boundary data type TPAR processed, time:        3599.
 Boundary data type TPAR processed, time:      -82801.
 Boundary data type TPAR processed, time:      -79201.
 Boundary data type TPAR processed, time:      -75601.
 Boundary data type TPAR processed, time:      -72001.
 Boundary data type TPAR processed, time:      -68401.
 Boundary data type TPAR processed, time:      -64801.
 Boundary data type TPAR processed, time:      -61201.
 Boundary data type TPAR processed, time:      -57601.
 Boundary data type TPAR processed, time:      -54001.
 Boundary data type TPAR processed, time:      -50401.
 Boundary data type TPAR processed, time:      -46801.
 Boundary data type TPAR processed, time:      -43201.
 Boundary data type TPAR processed, time:      -39601.
 Boundary data type TPAR processed, time:      -36001.
 Boundary data type TPAR processed, time:      -32401.
 Boundary data type TPAR processed, time:      -28801.
 Boundary data type TPAR processed, time:      -25201.
 Boundary data type TPAR processed, time:      -21601.
 Boundary data type TPAR processed, time:      -18001.
 Boundary data type TPAR processed, time:      -14401.
 Boundary data type TPAR processed, time:      -10801.
 Boundary data type TPAR processed, time:       -7201.
 Boundary data type TPAR processed, time:       -3601.
 Boundary data type TPAR processed, time:          -1.
 Boundary data type TPAR processed, time:        3599.
 Boundary data type TPAR processed, time:      -82801.
 Boundary data type TPAR processed, time:      -79201.
 Boundary data type TPAR processed, time:      -75601.
 Boundary data type TPAR processed, time:      -72001.
 Boundary data type TPAR processed, time:      -68401.
 Boundary data type TPAR processed, time:      -64801.
 Boundary data type TPAR processed, time:      -61201.
 Boundary data type TPAR processed, time:      -57601.
 Boundary data type TPAR processed, time:      -54001.
 Boundary data type TPAR processed, time:      -50401.
 Boundary data type TPAR processed, time:      -46801.
 Boundary data type TPAR processed, time:      -43201.
 Boundary data type TPAR processed, time:      -39601.
 Boundary data type TPAR processed, time:      -36001.
 Boundary data type TPAR processed, time:      -32401.
 Boundary data type TPAR processed, time:      -28801.
 Boundary data type TPAR processed, time:      -25201.
 Boundary data type TPAR processed, time:      -21601.
 Boundary data type TPAR processed, time:      -18001.
 Boundary data type TPAR processed, time:      -14401.
 Boundary data type TPAR processed, time:      -10801.
 Boundary data type TPAR processed, time:       -7201.
 Boundary data type TPAR processed, time:       -3601.
 Boundary data type TPAR processed, time:          -1.
 Boundary data type TPAR processed, time:        3599.
 Boundary data type TPAR processed, time:      -82801.
 Boundary data type TPAR processed, time:      -79201.
 Boundary data type TPAR processed, time:      -75601.
 Boundary data type TPAR processed, time:      -72001.
 Boundary data type TPAR processed, time:      -68401.
 Boundary data type TPAR processed, time:      -64801.
 Boundary data type TPAR processed, time:      -61201.
 Boundary data type TPAR processed, time:      -57601.
 Boundary data type TPAR processed, time:      -54001.
 Boundary data type TPAR processed, time:      -50401.
 Boundary data type TPAR processed, time:      -46801.
 Boundary data type TPAR processed, time:      -43201.
 Boundary data type TPAR processed, time:      -39601.
 Boundary data type TPAR processed, time:      -36001.
 Boundary data type TPAR processed, time:      -32401.
 Boundary data type TPAR processed, time:      -28801.
 Boundary data type TPAR processed, time:      -25201.
 Boundary data type TPAR processed, time:      -21601.
 Boundary data type TPAR processed, time:      -18001.
 Boundary data type TPAR processed, time:      -14401.
 Boundary data type TPAR processed, time:      -10801.
 Boundary data type TPAR processed, time:       -7201.
 Boundary data type TPAR processed, time:       -3601.
 Boundary data type TPAR processed, time:          -1.
 Boundary data type TPAR processed, time:        3599.
 Boundary data type TPAR processed, time:      -82801.
 Boundary data type TPAR processed, time:      -79201.
 Boundary data type TPAR processed, time:      -75601.
 Boundary data type TPAR processed, time:      -72001.
 Boundary data type TPAR processed, time:      -68401.
 Boundary data type TPAR processed, time:      -64801.
 Boundary data type TPAR processed, time:      -61201.
 Boundary data type TPAR processed, time:      -57601.
 Boundary data type TPAR processed, time:      -54001.
 Boundary data type TPAR processed, time:      -50401.
 Boundary data type TPAR processed, time:      -46801.
 Boundary data type TPAR processed, time:      -43201.
 Boundary data type TPAR processed, time:      -39601.
 Boundary data type TPAR processed, time:      -36001.
 Boundary data type TPAR processed, time:      -32401.
 Boundary data type TPAR processed, time:      -28801.
 Boundary data type TPAR processed, time:      -25201.
 Boundary data type TPAR processed, time:      -21601.
 Boundary data type TPAR processed, time:      -18001.
 Boundary data type TPAR processed, time:      -14401.
 Boundary data type TPAR processed, time:      -10801.
 Boundary data type TPAR processed, time:       -7201.
 Boundary data type TPAR processed, time:       -3601.
 Boundary data type TPAR processed, time:          -1.
 Boundary data type TPAR processed, time:        3599.
 Boundary data type TPAR processed, time:      -82801.
 Boundary data type TPAR processed, time:      -79201.
 Boundary data type TPAR processed, time:      -75601.
 Boundary data type TPAR processed, time:      -72001.
 Boundary data type TPAR processed, time:      -68401.
 Boundary data type TPAR processed, time:      -64801.
 Boundary data type TPAR processed, time:      -61201.
 Boundary data type TPAR processed, time:      -57601.
 Boundary data type TPAR processed, time:      -54001.
 Boundary data type TPAR processed, time:      -50401.
 Boundary data type TPAR processed, time:      -46801.
 Boundary data type TPAR processed, time:      -43201.
 Boundary data type TPAR processed, time:      -39601.
 Boundary data type TPAR processed, time:      -36001.
 Boundary data type TPAR processed, time:      -32401.
 Boundary data type TPAR processed, time:      -28801.
 Boundary data type TPAR processed, time:      -25201.
 Boundary data type TPAR processed, time:      -21601.
 Boundary data type TPAR processed, time:      -18001.
 Boundary data type TPAR processed, time:      -14401.
 Boundary data type TPAR processed, time:      -10801.
 Boundary data type TPAR processed, time:       -7201.
 Boundary data type TPAR processed, time:       -3601.
 Boundary data type TPAR processed, time:          -1.
 Boundary data type TPAR processed, time:        3599.
 Boundary data type TPAR processed, time:      -82801.
 Boundary data type TPAR processed, time:      -79201.
 Boundary data type TPAR processed, time:      -75601.
 Boundary data type TPAR processed, time:      -72001.
 Boundary data type TPAR processed, time:      -68401.
 Boundary data type TPAR processed, time:      -64801.
 Boundary data type TPAR processed, time:      -61201.
 Boundary data type TPAR processed, time:      -57601.
 Boundary data type TPAR processed, time:      -54001.
 Boundary data type TPAR processed, time:      -50401.
 Boundary data type TPAR processed, time:      -46801.
 Boundary data type TPAR processed, time:      -43201.
 Boundary data type TPAR processed, time:      -39601.
 Boundary data type TPAR processed, time:      -36001.
 Boundary data type TPAR processed, time:      -32401.
 Boundary data type TPAR processed, time:      -28801.
 Boundary data type TPAR processed, time:      -25201.
 Boundary data type TPAR processed, time:      -21601.
 Boundary data type TPAR processed, time:      -18001.
 Boundary data type TPAR processed, time:      -14401.
 Boundary data type TPAR processed, time:      -10801.
 Boundary data type TPAR processed, time:       -7201.
 Boundary data type TPAR processed, time:       -3601.
 Boundary data type TPAR processed, time:          -1.
 Boundary data type TPAR processed, time:        3599.
 Boundary data type TPAR processed, time:      -82801.
 Boundary data type TPAR processed, time:      -79201.
 Boundary data type TPAR processed, time:      -75601.
 Boundary data type TPAR processed, time:      -72001.
 Boundary data type TPAR processed, time:      -68401.
 Boundary data type TPAR processed, time:      -64801.
 Boundary data type TPAR processed, time:      -61201.
 Boundary data type TPAR processed, time:      -57601.
 Boundary data type TPAR processed, time:      -54001.
 Boundary data type TPAR processed, time:      -50401.
 Boundary data type TPAR processed, time:      -46801.
 Boundary data type TPAR processed, time:      -43201.
 Boundary data type TPAR processed, time:      -39601.
 Boundary data type TPAR processed, time:      -36001.
 Boundary data type TPAR processed, time:      -32401.
 Boundary data type TPAR processed, time:      -28801.
 Boundary data type TPAR processed, time:      -25201.
 Boundary data type TPAR processed, time:      -21601.
 Boundary data type TPAR processed, time:      -18001.
 Boundary data type TPAR processed, time:      -14401.
 Boundary data type TPAR processed, time:      -10801.
 Boundary data type TPAR processed, time:       -7201.
 Boundary data type TPAR processed, time:       -3601.
 Boundary data type TPAR processed, time:          -1.
 Boundary data type TPAR processed, time:        3599.
 Boundary data type TPAR processed, time:      -82801.
 Boundary data type TPAR processed, time:      -79201.
 Boundary data type TPAR processed, time:      -75601.
 Boundary data type TPAR processed, time:      -72001.
 Boundary data type TPAR processed, time:      -68401.
 Boundary data type TPAR processed, time:      -64801.
 Boundary data type TPAR processed, time:      -61201.
 Boundary data type TPAR processed, time:      -57601.
 Boundary data type TPAR processed, time:      -54001.
 Boundary data type TPAR processed, time:      -50401.
 Boundary data type TPAR processed, time:      -46801.
 Boundary data type TPAR processed, time:      -43201.
 Boundary data type TPAR processed, time:      -39601.
 Boundary data type TPAR processed, time:      -36001.
 Boundary data type TPAR processed, time:      -32401.
 Boundary data type TPAR processed, time:      -28801.
 Boundary data type TPAR processed, time:      -25201.
 Boundary data type TPAR processed, time:      -21601.
 Boundary data type TPAR processed, time:      -18001.
 Boundary data type TPAR processed, time:      -14401.
 Boundary data type TPAR processed, time:      -10801.
 Boundary data type TPAR processed, time:       -7201.
 Boundary data type TPAR processed, time:       -3601.
 Boundary data type TPAR processed, time:          -1.
 Boundary data type TPAR processed, time:        3599.
 Boundary data type TPAR processed, time:      -82801.
 Boundary data type TPAR processed, time:      -79201.
 Boundary data type TPAR processed, time:      -75601.
 Boundary data type TPAR processed, time:      -72001.
 Boundary data type TPAR processed, time:      -68401.
 Boundary data type TPAR processed, time:      -64801.
 Boundary data type TPAR processed, time:      -61201.
 Boundary data type TPAR processed, time:      -57601.
 Boundary data type TPAR processed, time:      -54001.
 Boundary data type TPAR processed, time:      -50401.
 Boundary data type TPAR processed, time:      -46801.
 Boundary data type TPAR processed, time:      -43201.
 Boundary data type TPAR processed, time:      -39601.
 Boundary data type TPAR processed, time:      -36001.
 Boundary data type TPAR processed, time:      -32401.
 Boundary data type TPAR processed, time:      -28801.
 Boundary data type TPAR processed, time:      -25201.
 Boundary data type TPAR processed, time:      -21601.
 Boundary data type TPAR processed, time:      -18001.
 Boundary data type TPAR processed, time:      -14401.
 Boundary data type TPAR processed, time:      -10801.
 Boundary data type TPAR processed, time:       -7201.
 Boundary data type TPAR processed, time:       -3601.
 Boundary data type TPAR processed, time:          -1.
 Boundary data type TPAR processed, time:        3599.
 Boundary data type TPAR processed, time:      -82801.
 Boundary data type TPAR processed, time:      -79201.
 Boundary data type TPAR processed, time:      -75601.
 Boundary data type TPAR processed, time:      -72001.
 Boundary data type TPAR processed, time:      -68401.
 Boundary data type TPAR processed, time:      -64801.
 Boundary data type TPAR processed, time:      -61201.
 Boundary data type TPAR processed, time:      -57601.
 Boundary data type TPAR processed, time:      -54001.
 Boundary data type TPAR processed, time:      -50401.
 Boundary data type TPAR processed, time:      -46801.
 Boundary data type TPAR processed, time:      -43201.
 Boundary data type TPAR processed, time:      -39601.
 Boundary data type TPAR processed, time:      -36001.
 Boundary data type TPAR processed, time:      -32401.
 Boundary data type TPAR processed, time:      -28801.
 Boundary data type TPAR processed, time:      -25201.
 Boundary data type TPAR processed, time:      -21601.
 Boundary data type TPAR processed, time:      -18001.
 Boundary data type TPAR processed, time:      -14401.
 Boundary data type TPAR processed, time:      -10801.
 Boundary data type TPAR processed, time:       -7201.
 Boundary data type TPAR processed, time:       -3601.
 Boundary data type TPAR processed, time:          -1.
 Boundary data type TPAR processed, time:        3599.
 Boundary data type TPAR processed, time:      -82801.
 Boundary data type TPAR processed, time:      -79201.
 Boundary data type TPAR processed, time:      -75601.
 Boundary data type TPAR processed, time:      -72001.
 Boundary data type TPAR processed, time:      -68401.
 Boundary data type TPAR processed, time:      -64801.
 Boundary data type TPAR processed, time:      -61201.
 Boundary data type TPAR processed, time:      -57601.
 Boundary data type TPAR processed, time:      -54001.
 Boundary data type TPAR processed, time:      -50401.
 Boundary data type TPAR processed, time:      -46801.
 Boundary data type TPAR processed, time:      -43201.
 Boundary data type TPAR processed, time:      -39601.
 Boundary data type TPAR processed, time:      -36001.
 Boundary data type TPAR processed, time:      -32401.
 Boundary data type TPAR processed, time:      -28801.
 Boundary data type TPAR processed, time:      -25201.
 Boundary data type TPAR processed, time:      -21601.
 Boundary data type TPAR processed, time:      -18001.
 Boundary data type TPAR processed, time:      -14401.
 Boundary data type TPAR processed, time:      -10801.
 Boundary data type TPAR processed, time:       -7201.
 Boundary data type TPAR processed, time:       -3601.
 Boundary data type TPAR processed, time:          -1.
 Boundary data type TPAR processed, time:        3599.
 Boundary data type TPAR processed, time:      -82801.
 Boundary data type TPAR processed, time:      -79201.
 Boundary data type TPAR processed, time:      -75601.
 Boundary data type TPAR processed, time:      -72001.
 Boundary data type TPAR processed, time:      -68401.
 Boundary data type TPAR processed, time:      -64801.
 Boundary data type TPAR processed, time:      -61201.
 Boundary data type TPAR processed, time:      -57601.
 Boundary data type TPAR processed, time:      -54001.
 Boundary data type TPAR processed, time:      -50401.
 Boundary data type TPAR processed, time:      -46801.
 Boundary data type TPAR processed, time:      -43201.
 Boundary data type TPAR processed, time:      -39601.
 Boundary data type TPAR processed, time:      -36001.
 Boundary data type TPAR processed, time:      -32401.
 Boundary data type TPAR processed, time:      -28801.
 Boundary data type TPAR processed, time:      -25201.
 Boundary data type TPAR processed, time:      -21601.
 Boundary data type TPAR processed, time:      -18001.
 Boundary data type TPAR processed, time:      -14401.
 Boundary data type TPAR processed, time:      -10801.
 Boundary data type TPAR processed, time:       -7201.
 Boundary data type TPAR processed, time:       -3601.
 Boundary data type TPAR processed, time:          -1.
 Boundary data type TPAR processed, time:        3599.
 Boundary data type TPAR processed, time:      -82801.
 Boundary data type TPAR processed, time:      -79201.
 Boundary data type TPAR processed, time:      -75601.
 Boundary data type TPAR processed, time:      -72001.
 Boundary data type TPAR processed, time:      -68401.
 Boundary data type TPAR processed, time:      -64801.
 Boundary data type TPAR processed, time:      -61201.
 Boundary data type TPAR processed, time:      -57601.
 Boundary data type TPAR processed, time:      -54001.
 Boundary data type TPAR processed, time:      -50401.
 Boundary data type TPAR processed, time:      -46801.
 Boundary data type TPAR processed, time:      -43201.
 Boundary data type TPAR processed, time:      -39601.
 Boundary data type TPAR processed, time:      -36001.
 Boundary data type TPAR processed, time:      -32401.
 Boundary data type TPAR processed, time:      -28801.
 Boundary data type TPAR processed, time:      -25201.
 Boundary data type TPAR processed, time:      -21601.
 Boundary data type TPAR processed, time:      -18001.
 Boundary data type TPAR processed, time:      -14401.
 Boundary data type TPAR processed, time:      -10801.
 Boundary data type TPAR processed, time:       -7201.
 Boundary data type TPAR processed, time:       -3601.
 Boundary data type TPAR processed, time:          -1.
 Boundary data type TPAR processed, time:        3599.
 Time of computation ->  20150505.000500      in sec:        300.

----------------------------------------------------------------
                  COMPUTATIONAL PART OF SWAN
----------------------------------------------------------------

 Gridresolution       : MSC              37 MDC             36
                      : MTC             288
                      : NSTATC            1 ITERMX         100
 Propagation flags    : ITFRE             1 IREFR            1
 Source term flags    : IBOT              1 ISURF            1
                      : IWCAP             7 IWIND            5
                      : ITRIAD            5 IQUAD            2
                      : IBRAG             0 IQCM             0
                      : IVEG              0 ITURBV           0
                      : IMUD              0 IICE             0
 Spectral bin         : df/f     0.9541E-01 DDIR    0.1000E+02
 Physical constants   : GRAV     0.9810E+01 RHO     0.1025E+04
 Wind input           : WSPEED   0.0000E+00 DIR     0.0000E+00
                      : ICEWIND  0.00
 Tail parameters      : E(f)     0.4000E+01 E(k)    0.2500E+01
                      : A(f)     0.5000E+01 A(k)    0.3000E+01
 Accuracy parameters  : DREL     0.1000E-01 NPNTS   0.9850E+02
                      : DHOVAL   0.2000E-01 DTOVAL  0.2000E-01
                      : GRWMX    0.1000E+00
 Drying/flooding      : LEVEL    0.5000E+00 DEPMIN  0.5000E-01
 The nautical  convention for wind and wave directions is used
 Scheme for geographic propagation is BSBT  
 Scheme spectral space: CSS      0.5000E+00 CDD     0.5000E+00
 Current is off
 Quadruplets          : IQUAD             2
                      : LAMBDA   0.2500E+00 CNL4    0.3000E+08
                      : CSH1     0.5500E+01 CSH2    0.8330E+00
                      : CSH3    -0.1250E+01
 Maximum Ursell nr for Snl4 :    0.1000E+02
 Triads               : ITRIAD            5 TRFAC   0.4400E+01
                      : POWER    0.1333E+01 URCRI   0.6300E+00
 Minimum Ursell nr for Snl3 :    0.1000E+00
 DCTA (Booij et al, 2009) is employed
 Biphase based on Eldeberky (1996)
 Bragg scattering is off
 QC scattering is off
 Surfbeat (IEM) is off
 JONSWAP (`73)        : GAMMA    0.3800E-01
 Vegetation is off
 Turbulence is off
 Fluid mud is off
 Dissipation by sea ice is off
 W-cap Alves-Banner   : CDS2     0.5000E-04 BR      0.1750E-02
 Wind drag is Wu
 Yan/Westhuysen wind input
 Battjes&Janssen (`78): ALPHA    0.1000E+01 GAMMA   0.7300E+00
 Set-up is off
 Diffraction is off
 Janssen (`89,`90)    : ALPHA    0.1000E-01 KAPPA   0.4100E+00
 Janssen (`89,`90)    : RHOA     0.1280E+01 RHOW    0.1025E+04

 1st and 2nd gen. wind: CF10     0.1880E+03 CF20    0.5900E+00
                      : CF30     0.1200E+00 CF40    0.2500E+03
                      : CF50     0.2300E-02 CF60   -0.2230E+00
                      : CF70     0.0000E+00 CF80   -0.5600E+00
                      : RHOAW    0.1249E-02 EDMLPM  0.3600E-02
                      : CDRAG    0.1230E-02 UMIN    0.1000E+01
                      : LIM_PM   0.1300E+00

 Number of active points = 150884 (fillings-degree: 100.00 %)
       not possible to compute accuracy, first iteration

 accuracy OK in  93.02 % of wet grid points ( 98.50 % required)

 accuracy OK in  94.66 % of wet grid points ( 98.50 % required)

 accuracy OK in  95.26 % of wet grid points ( 98.50 % required)

 accuracy OK in  95.12 % of wet grid points ( 98.50 % required)

 accuracy OK in  94.97 % of wet grid points ( 98.50 % required)

 accuracy OK in  94.81 % of wet grid points ( 98.50 % required)

 accuracy OK in  94.68 % of wet grid points ( 98.50 % required)

 accuracy OK in  94.56 % of wet grid points ( 98.50 % required)

 accuracy OK in  94.48 % of wet grid points ( 98.50 % required)

 accuracy OK in  94.49 % of wet grid points ( 98.50 % required)

 accuracy OK in  94.55 % of wet grid points ( 98.50 % required)

 accuracy OK in  94.57 % of wet grid points ( 98.50 % required)

 accuracy OK in  94.61 % of wet grid points ( 98.50 % required)

 accuracy OK in  94.56 % of wet grid points ( 98.50 % required)

 accuracy OK in  94.51 % of wet grid points ( 98.50 % required)

 accuracy OK in  94.46 % of wet grid points ( 98.50 % required)

 accuracy OK in  94.42 % of wet grid points ( 98.50 % required)

 accuracy OK in  94.39 % of wet grid points ( 98.50 % required)

 accuracy OK in  94.32 % of wet grid points ( 98.50 % required)

 accuracy OK in  94.22 % of wet grid points ( 98.50 % required)

 accuracy OK in  94.13 % of wet grid points ( 98.50 % required)

 accuracy OK in  94.09 % of wet grid points ( 98.50 % required)

 accuracy OK in  93.99 % of wet grid points ( 98.50 % required)

 accuracy OK in  93.92 % of wet grid points ( 98.50 % required)

 accuracy OK in  93.80 % of wet grid points ( 98.50 % required)

 accuracy OK in  93.71 % of wet grid points ( 98.50 % required)

 accuracy OK in  93.62 % of wet grid points ( 98.50 % required)

 accuracy OK in  93.57 % of wet grid points ( 98.50 % required)

 accuracy OK in  93.49 % of wet grid points ( 98.50 % required)

 accuracy OK in  93.40 % of wet grid points ( 98.50 % required)

 accuracy OK in  93.30 % of wet grid points ( 98.50 % required)

 accuracy OK in  93.19 % of wet grid points ( 98.50 % required)

 accuracy OK in  93.01 % of wet grid points ( 98.50 % required)

 accuracy OK in  92.91 % of wet grid points ( 98.50 % required)

 accuracy OK in  92.81 % of wet grid points ( 98.50 % required)

 accuracy OK in  92.67 % of wet grid points ( 98.50 % required)

 accuracy OK in  92.56 % of wet grid points ( 98.50 % required)

 accuracy OK in  92.53 % of wet grid points ( 98.50 % required)

 accuracy OK in  92.49 % of wet grid points ( 98.50 % required)

 accuracy OK in  92.44 % of wet grid points ( 98.50 % required)

 accuracy OK in  92.34 % of wet grid points ( 98.50 % required)

 accuracy OK in  92.28 % of wet grid points ( 98.50 % required)

 accuracy OK in  92.26 % of wet grid points ( 98.50 % required)

 accuracy OK in  92.22 % of wet grid points ( 98.50 % required)

 accuracy OK in  92.17 % of wet grid points ( 98.50 % required)

 accuracy OK in  92.12 % of wet grid points ( 98.50 % required)

 accuracy OK in  92.07 % of wet grid points ( 98.50 % required)

 accuracy OK in  91.99 % of wet grid points ( 98.50 % required)

 accuracy OK in  91.99 % of wet grid points ( 98.50 % required)

 accuracy OK in  92.05 % of wet grid points ( 98.50 % required)

 accuracy OK in  92.16 % of wet grid points ( 98.50 % required)

 accuracy OK in  92.31 % of wet grid points ( 98.50 % required)

 accuracy OK in  92.36 % of wet grid points ( 98.50 % required)

 accuracy OK in  92.36 % of wet grid points ( 98.50 % required)

 accuracy OK in  92.33 % of wet grid points ( 98.50 % required)

 accuracy OK in  92.35 % of wet grid points ( 98.50 % required)

[...]

 accuracy OK in  99.90 % of wet grid points ( 98.50 % required)

 Time of computation ->  20150505.201000      in sec:      72600.
       not possible to compute accuracy, first iteration

 accuracy OK in  99.88 % of wet grid points ( 98.50 % required)

 Time of computation ->  20150505.201500      in sec:      72900.
       not possible to compute accuracy, first iteration

 accuracy OK in  99.90 % of wet grid points ( 98.50 % required)

 Time of computation ->  20150505.202000      in sec:      73200.
       not possible to compute accuracy, first iteration

 accuracy OK in  99.89 % of wet grid points ( 98.50 % required)

 Time of computation ->  20150505.202500      in sec:      73500.
       not possible to compute accuracy, first iteration

 accuracy OK in  99.91 % of wet grid points ( 98.50 % required)

 Time of computation ->  20150505.203000      in sec:      73800.
       not possible to compute accuracy, first iteration

 accuracy OK in  99.89 % of wet grid points ( 98.50 % required)

 Time of computation ->  20150505.203500      in sec:      74100.
       not possible to compute accuracy, first iteration

 accuracy OK in  99.91 % of wet grid points ( 98.50 % required)

 Time of computation ->  20150505.204000      in sec:      74400.
       not possible to compute accuracy, first iteration

 accuracy OK in  99.88 % of wet grid points ( 98.50 % required)

 Time of computation ->  20150505.204500      in sec:      74700.
       not possible to compute accuracy, first iteration

 accuracy OK in  99.91 % of wet grid points ( 98.50 % required)

 Time of computation ->  20150505.205000      in sec:      75000.
       not possible to compute accuracy, first iteration

 accuracy OK in  99.90 % of wet grid points ( 98.50 % required)

 Time of computation ->  20150505.205500      in sec:      75300.
       not possible to compute accuracy, first iteration

 accuracy OK in  99.90 % of wet grid points ( 98.50 % required)

 Time of computation ->  20150505.210000      in sec:      75600.
 Boundary data type TPAR processed, time:       79199.
 Boundary data type TPAR processed, time:       79199.
 Boundary data type TPAR processed, time:       79199.
 Boundary data type TPAR processed, time:       79199.
 Boundary data type TPAR processed, time:       79199.
 Boundary data type TPAR processed, time:       79199.
 Boundary data type TPAR processed, time:       79199.
 Boundary data type TPAR processed, time:       79199.
 Boundary data type TPAR processed, time:       79199.
 Boundary data type TPAR processed, time:       79199.
 Boundary data type TPAR processed, time:       79199.
 Boundary data type TPAR processed, time:       79199.
 Boundary data type TPAR processed, time:       79199.
 Boundary data type TPAR processed, time:       79199.
 Boundary data type TPAR processed, time:       79199.
 Boundary data type TPAR processed, time:       79199.
 Boundary data type TPAR processed, time:       79199.
 Boundary data type TPAR processed, time:       79199.
 Boundary data type TPAR processed, time:       79199.
 Boundary data type TPAR processed, time:       79199.
 Boundary data type TPAR processed, time:       79199.
 Boundary data type TPAR processed, time:       79199.
 Boundary data type TPAR processed, time:       79199.
 Boundary data type TPAR processed, time:       79199.
 Boundary data type TPAR processed, time:       79199.
 Boundary data type TPAR processed, time:       79199.
 Boundary data type TPAR processed, time:       79199.
 Boundary data type TPAR processed, time:       79199.
 Boundary data type TPAR processed, time:       79199.
 Boundary data type TPAR processed, time:       79199.
 Boundary data type TPAR processed, time:       79199.
 Boundary data type TPAR processed, time:       79199.
 Boundary data type TPAR processed, time:       79199.
 Boundary data type TPAR processed, time:       79199.
 Boundary data type TPAR processed, time:       79199.
 Boundary data type TPAR processed, time:       79199.
 Boundary data type TPAR processed, time:       79199.
 Boundary data type TPAR processed, time:       79199.
 Boundary data type TPAR processed, time:       79199.
 Boundary data type TPAR processed, time:       79199.
 Boundary data type TPAR processed, time:       79199.
 Boundary data type TPAR processed, time:       79199.
 Boundary data type TPAR processed, time:       79199.
 Boundary data type TPAR processed, time:       79199.
 Boundary data type TPAR processed, time:       79199.
 Boundary data type TPAR processed, time:       79199.
 Boundary data type TPAR processed, time:       79199.
 Boundary data type TPAR processed, time:       79199.
 Boundary data type TPAR processed, time:       79199.
 Boundary data type TPAR processed, time:       79199.
       not possible to compute accuracy, first iteration

 accuracy OK in  99.89 % of wet grid points ( 98.50 % required)

 Time of computation ->  20150505.210500      in sec:      75900.
       not possible to compute accuracy, first iteration

 accuracy OK in  99.91 % of wet grid points ( 98.50 % required)

 Time of computation ->  20150505.211000      in sec:      76200.
       not possible to compute accuracy, first iteration

 accuracy OK in  99.88 % of wet grid points ( 98.50 % required)

 Time of computation ->  20150505.211500      in sec:      76500.
       not possible to compute accuracy, first iteration

 accuracy OK in  99.90 % of wet grid points ( 98.50 % required)

 Time of computation ->  20150505.212000      in sec:      76800.
       not possible to compute accuracy, first iteration

 accuracy OK in  99.88 % of wet grid points ( 98.50 % required)

 Time of computation ->  20150505.212500      in sec:      77100.
       not possible to compute accuracy, first iteration

 accuracy OK in  99.89 % of wet grid points ( 98.50 % required)

 Time of computation ->  20150505.213000      in sec:      77400.
       not possible to compute accuracy, first iteration

 accuracy OK in  99.87 % of wet grid points ( 98.50 % required)

 Time of computation ->  20150505.213500      in sec:      77700.
       not possible to compute accuracy, first iteration

 accuracy OK in  99.89 % of wet grid points ( 98.50 % required)

 Time of computation ->  20150505.214000      in sec:      78000.
       not possible to compute accuracy, first iteration

 accuracy OK in  99.87 % of wet grid points ( 98.50 % required)

 Time of computation ->  20150505.214500      in sec:      78300.
       not possible to compute accuracy, first iteration

 accuracy OK in  99.89 % of wet grid points ( 98.50 % required)

 Time of computation ->  20150505.215000      in sec:      78600.
       not possible to compute accuracy, first iteration

 accuracy OK in  99.88 % of wet grid points ( 98.50 % required)

 Time of computation ->  20150505.215500      in sec:      78900.
       not possible to compute accuracy, first iteration

 accuracy OK in  99.89 % of wet grid points ( 98.50 % required)

 Time of computation ->  20150505.220000      in sec:      79200.
 Boundary data type TPAR processed, time:       82799.
 Boundary data type TPAR processed, time:       82799.
 Boundary data type TPAR processed, time:       82799.
 Boundary data type TPAR processed, time:       82799.
 Boundary data type TPAR processed, time:       82799.
 Boundary data type TPAR processed, time:       82799.
 Boundary data type TPAR processed, time:       82799.
 Boundary data type TPAR processed, time:       82799.
 Boundary data type TPAR processed, time:       82799.
 Boundary data type TPAR processed, time:       82799.
 Boundary data type TPAR processed, time:       82799.
 Boundary data type TPAR processed, time:       82799.
 Boundary data type TPAR processed, time:       82799.
 Boundary data type TPAR processed, time:       82799.
 Boundary data type TPAR processed, time:       82799.
 Boundary data type TPAR processed, time:       82799.
 Boundary data type TPAR processed, time:       82799.
 Boundary data type TPAR processed, time:       82799.
 Boundary data type TPAR processed, time:       82799.
 Boundary data type TPAR processed, time:       82799.
 Boundary data type TPAR processed, time:       82799.
 Boundary data type TPAR processed, time:       82799.
 Boundary data type TPAR processed, time:       82799.
 Boundary data type TPAR processed, time:       82799.
 Boundary data type TPAR processed, time:       82799.
 Boundary data type TPAR processed, time:       82799.
 Boundary data type TPAR processed, time:       82799.
 Boundary data type TPAR processed, time:       82799.
 Boundary data type TPAR processed, time:       82799.
 Boundary data type TPAR processed, time:       82799.
 Boundary data type TPAR processed, time:       82799.
 Boundary data type TPAR processed, time:       82799.
 Boundary data type TPAR processed, time:       82799.
 Boundary data type TPAR processed, time:       82799.
 Boundary data type TPAR processed, time:       82799.
 Boundary data type TPAR processed, time:       82799.
 Boundary data type TPAR processed, time:       82799.
 Boundary data type TPAR processed, time:       82799.
 Boundary data type TPAR processed, time:       82799.
 Boundary data type TPAR processed, time:       82799.
 Boundary data type TPAR processed, time:       82799.
 Boundary data type TPAR processed, time:       82799.
 Boundary data type TPAR processed, time:       82799.
 Boundary data type TPAR processed, time:       82799.
 Boundary data type TPAR processed, time:       82799.
 Boundary data type TPAR processed, time:       82799.
 Boundary data type TPAR processed, time:       82799.
 Boundary data type TPAR processed, time:       82799.
 Boundary data type TPAR processed, time:       82799.
 Boundary data type TPAR processed, time:       82799.
       not possible to compute accuracy, first iteration

 accuracy OK in  99.88 % of wet grid points ( 98.50 % required)

 Time of computation ->  20150505.220500      in sec:      79500.
       not possible to compute accuracy, first iteration

 accuracy OK in  99.89 % of wet grid points ( 98.50 % required)

 Time of computation ->  20150505.221000      in sec:      79800.
       not possible to compute accuracy, first iteration

 accuracy OK in  99.87 % of wet grid points ( 98.50 % required)

 Time of computation ->  20150505.221500      in sec:      80100.
       not possible to compute accuracy, first iteration

 accuracy OK in  99.89 % of wet grid points ( 98.50 % required)

 Time of computation ->  20150505.222000      in sec:      80400.
       not possible to compute accuracy, first iteration

 accuracy OK in  99.87 % of wet grid points ( 98.50 % required)

 Time of computation ->  20150505.222500      in sec:      80700.
       not possible to compute accuracy, first iteration

 accuracy OK in  99.89 % of wet grid points ( 98.50 % required)

 Time of computation ->  20150505.223000      in sec:      81000.
       not possible to compute accuracy, first iteration

 accuracy OK in  99.88 % of wet grid points ( 98.50 % required)

 Time of computation ->  20150505.223500      in sec:      81300.
       not possible to compute accuracy, first iteration

 accuracy OK in  99.90 % of wet grid points ( 98.50 % required)

 Time of computation ->  20150505.224000      in sec:      81600.
       not possible to compute accuracy, first iteration

 accuracy OK in  99.88 % of wet grid points ( 98.50 % required)

 Time of computation ->  20150505.224500      in sec:      81900.
       not possible to compute accuracy, first iteration

 accuracy OK in  99.90 % of wet grid points ( 98.50 % required)

 Time of computation ->  20150505.225000      in sec:      82200.
       not possible to compute accuracy, first iteration

 accuracy OK in  99.89 % of wet grid points ( 98.50 % required)

 Time of computation ->  20150505.225500      in sec:      82500.
       not possible to compute accuracy, first iteration

 accuracy OK in  99.89 % of wet grid points ( 98.50 % required)

 Time of computation ->  20150505.230000      in sec:      82800.
 Boundary data type TPAR processed, time:       86399.
 Boundary data type TPAR processed, time:       86399.
 Boundary data type TPAR processed, time:       86399.
 Boundary data type TPAR processed, time:       86399.
 Boundary data type TPAR processed, time:       86399.
 Boundary data type TPAR processed, time:       86399.
 Boundary data type TPAR processed, time:       86399.
 Boundary data type TPAR processed, time:       86399.
 Boundary data type TPAR processed, time:       86399.
 Boundary data type TPAR processed, time:       86399.
 Boundary data type TPAR processed, time:       86399.
 Boundary data type TPAR processed, time:       86399.
 Boundary data type TPAR processed, time:       86399.
 Boundary data type TPAR processed, time:       86399.
 Boundary data type TPAR processed, time:       86399.
 Boundary data type TPAR processed, time:       86399.
 Boundary data type TPAR processed, time:       86399.
 Boundary data type TPAR processed, time:       86399.
 Boundary data type TPAR processed, time:       86399.
 Boundary data type TPAR processed, time:       86399.
 Boundary data type TPAR processed, time:       86399.
 Boundary data type TPAR processed, time:       86399.
 Boundary data type TPAR processed, time:       86399.
 Boundary data type TPAR processed, time:       86399.
 Boundary data type TPAR processed, time:       86399.
 Boundary data type TPAR processed, time:       86399.
 Boundary data type TPAR processed, time:       86399.
 Boundary data type TPAR processed, time:       86399.
 Boundary data type TPAR processed, time:       86399.
 Boundary data type TPAR processed, time:       86399.
 Boundary data type TPAR processed, time:       86399.
 Boundary data type TPAR processed, time:       86399.
 Boundary data type TPAR processed, time:       86399.
 Boundary data type TPAR processed, time:       86399.
 Boundary data type TPAR processed, time:       86399.
 Boundary data type TPAR processed, time:       86399.
 Boundary data type TPAR processed, time:       86399.
 Boundary data type TPAR processed, time:       86399.
 Boundary data type TPAR processed, time:       86399.
 Boundary data type TPAR processed, time:       86399.
 Boundary data type TPAR processed, time:       86399.
 Boundary data type TPAR processed, time:       86399.
 Boundary data type TPAR processed, time:       86399.
 Boundary data type TPAR processed, time:       86399.
 Boundary data type TPAR processed, time:       86399.
 Boundary data type TPAR processed, time:       86399.
 Boundary data type TPAR processed, time:       86399.
 Boundary data type TPAR processed, time:       86399.
 Boundary data type TPAR processed, time:       86399.
 Boundary data type TPAR processed, time:       86399.
       not possible to compute accuracy, first iteration

 accuracy OK in  99.88 % of wet grid points ( 98.50 % required)

 Time of computation ->  20150505.230500      in sec:      83100.
       not possible to compute accuracy, first iteration

 accuracy OK in  99.89 % of wet grid points ( 98.50 % required)

 Time of computation ->  20150505.231000      in sec:      83400.
       not possible to compute accuracy, first iteration

 accuracy OK in  99.89 % of wet grid points ( 98.50 % required)

 Time of computation ->  20150505.231500      in sec:      83700.
       not possible to compute accuracy, first iteration

 accuracy OK in  99.89 % of wet grid points ( 98.50 % required)

 Time of computation ->  20150505.232000      in sec:      84000.
       not possible to compute accuracy, first iteration

 accuracy OK in  99.89 % of wet grid points ( 98.50 % required)

 Time of computation ->  20150505.232500      in sec:      84300.
       not possible to compute accuracy, first iteration

 accuracy OK in  99.90 % of wet grid points ( 98.50 % required)

 Time of computation ->  20150505.233000      in sec:      84600.
       not possible to compute accuracy, first iteration

 accuracy OK in  99.88 % of wet grid points ( 98.50 % required)

 Time of computation ->  20150505.233500      in sec:      84900.
       not possible to compute accuracy, first iteration

 accuracy OK in  99.90 % of wet grid points ( 98.50 % required)

 Time of computation ->  20150505.234000      in sec:      85200.
       not possible to compute accuracy, first iteration

 accuracy OK in  99.89 % of wet grid points ( 98.50 % required)

 Time of computation ->  20150505.234500      in sec:      85500.
       not possible to compute accuracy, first iteration

 accuracy OK in  99.89 % of wet grid points ( 98.50 % required)

 Time of computation ->  20150505.235000      in sec:      85800.
       not possible to compute accuracy, first iteration

 accuracy OK in  99.88 % of wet grid points ( 98.50 % required)

 Time of computation ->  20150505.235500      in sec:      86100.
       not possible to compute accuracy, first iteration

 accuracy OK in  99.88 % of wet grid points ( 98.50 % required)

 Time of computation ->  20150506.000000      in sec:      86400.
 Boundary data type TPAR processed, time:       89999.
 Boundary data type TPAR processed, time:       89999.
 Boundary data type TPAR processed, time:       89999.
 Boundary data type TPAR processed, time:       89999.
 Boundary data type TPAR processed, time:       89999.
 Boundary data type TPAR processed, time:       89999.
 Boundary data type TPAR processed, time:       89999.
 Boundary data type TPAR processed, time:       89999.
 Boundary data type TPAR processed, time:       89999.
 Boundary data type TPAR processed, time:       89999.
 Boundary data type TPAR processed, time:       89999.
 Boundary data type TPAR processed, time:       89999.
 Boundary data type TPAR processed, time:       89999.
 Boundary data type TPAR processed, time:       89999.
 Boundary data type TPAR processed, time:       89999.
 Boundary data type TPAR processed, time:       89999.
 Boundary data type TPAR processed, time:       89999.
 Boundary data type TPAR processed, time:       89999.
 Boundary data type TPAR processed, time:       89999.
 Boundary data type TPAR processed, time:       89999.
 Boundary data type TPAR processed, time:       89999.
 Boundary data type TPAR processed, time:       89999.
 Boundary data type TPAR processed, time:       89999.
 Boundary data type TPAR processed, time:       89999.
 Boundary data type TPAR processed, time:       89999.
 Boundary data type TPAR processed, time:       89999.
 Boundary data type TPAR processed, time:       89999.
 Boundary data type TPAR processed, time:       89999.
 Boundary data type TPAR processed, time:       89999.
 Boundary data type TPAR processed, time:       89999.
 Boundary data type TPAR processed, time:       89999.
 Boundary data type TPAR processed, time:       89999.
 Boundary data type TPAR processed, time:       89999.
 Boundary data type TPAR processed, time:       89999.
 Boundary data type TPAR processed, time:       89999.
 Boundary data type TPAR processed, time:       89999.
 Boundary data type TPAR processed, time:       89999.
 Boundary data type TPAR processed, time:       89999.
 Boundary data type TPAR processed, time:       89999.
 Boundary data type TPAR processed, time:       89999.
 Boundary data type TPAR processed, time:       89999.
 Boundary data type TPAR processed, time:       89999.
 Boundary data type TPAR processed, time:       89999.
 Boundary data type TPAR processed, time:       89999.
 Boundary data type TPAR processed, time:       89999.
 Boundary data type TPAR processed, time:       89999.
 Boundary data type TPAR processed, time:       89999.
 Boundary data type TPAR processed, time:       89999.
 Boundary data type TPAR processed, time:       89999.
 Boundary data type TPAR processed, time:       89999.
       not possible to compute accuracy, first iteration

 accuracy OK in  99.88 % of wet grid points ( 98.50 % required)

    
 STOP
